ligand_0
     RDKit          3D

 16 18  0  0  0  0  0  0  0  0999 V2000
  -51.2120    6.3510  -20.1870 C   0  0  0  0  0  0  0  0  0  0  0  0
  -50.9200    6.5970  -21.6150 N   0  0  0  0  0  0  0  0  0  0  0  0
  -49.8190    7.3440  -21.9810 C   0  0  0  0  0  0  0  0  0  0  0  0
  -49.0450    8.0950  -21.0700 C   0  0  0  0  0  0  0  0  0  0  0  0
  -47.9110    8.7890  -21.5030 C   0  0  0  0  0  0  0  0  0  0  0  0
  -47.5210    8.7720  -22.8440 C   0  0  0  0  0  0  0  0  0  0  0  0
  -48.2740    8.0860  -23.8000 C   0  0  0  0  0  0  0  0  0  0  0  0
  -47.9200    8.1080  -25.0090 O   0  0  0  0  0  0  0  0  0  0  0  0
  -49.4240    7.3900  -23.4110 C   0  0  0  0  0  0  0  0  0  0  0  0
  -50.2020    6.7740  -24.3260 N   0  0  0  0  0  0  0  0  0  0  0  0
  -51.3420    6.1370  -23.9680 C   0  0  0  0  0  0  0  0  0  0  0  0
  -52.1350    5.5630  -24.9690 C   0  0  0  0  0  0  0  0  0  0  0  0
  -53.3410    4.9460  -24.6450 C   0  0  0  0  0  0  0  0  0  0  0  0
  -53.7710    4.9100  -23.3210 C   0  0  0  0  0  0  0  0  0  0  0  0
  -52.9880    5.4690  -22.3080 C   0  0  0  0  0  0  0  0  0  0  0  0
  -51.7370    6.0700  -22.6020 C   0  0  0  0  0  0  0  0  0  0  0  0
  1  2  1  0
  2  3  1  0
  2 16  1  0
  3  4  2  0
  3  9  1  0
  4  5  1  0
  5  6  2  0
  6  7  1  0
  7  8  2  0
  7  9  1  0
  9 10  2  0
 10 11  1  0
 11 12  2  0
 11 16  1  0
 12 13  1  0
 13 14  2  0
 14 15  1  0
 15 16  2  0
M  END
>  <Conformer_ID>  (1) 
1

$$$$
ligand_0
     RDKit          3D

 16 18  0  0  0  0  0  0  0  0999 V2000
  -49.8700    6.4130  -20.9450 C   0  0  0  0  0  0  0  0  0  0  0  0
  -48.8620    7.0200  -21.8400 N   0  0  0  0  0  0  0  0  0  0  0  0
  -49.2170    7.4400  -23.1050 C   0  0  0  0  0  0  0  0  0  0  0  0
  -50.4550    7.1340  -23.7130 C   0  0  0  0  0  0  0  0  0  0  0  0
  -50.7700    7.6370  -24.9790 C   0  0  0  0  0  0  0  0  0  0  0  0
  -49.8680    8.4390  -25.6830 C   0  0  0  0  0  0  0  0  0  0  0  0
  -48.6100    8.7350  -25.1540 C   0  0  0  0  0  0  0  0  0  0  0  0
  -47.8020    9.4380  -25.8190 O   0  0  0  0  0  0  0  0  0  0  0  0
  -48.2500    8.2410  -23.8950 C   0  0  0  0  0  0  0  0  0  0  0  0
  -47.0170    8.4620  -23.3930 N   0  0  0  0  0  0  0  0  0  0  0  0
  -46.6400    7.9500  -22.1980 C   0  0  0  0  0  0  0  0  0  0  0  0
  -45.3310    8.1680  -21.7540 C   0  0  0  0  0  0  0  0  0  0  0  0
  -44.8910    7.6120  -20.5540 C   0  0  0  0  0  0  0  0  0  0  0  0
  -45.7520    6.8220  -19.7960 C   0  0  0  0  0  0  0  0  0  0  0  0
  -47.0660    6.6020  -20.2190 C   0  0  0  0  0  0  0  0  0  0  0  0
  -47.5530    7.1860  -21.4160 C   0  0  0  0  0  0  0  0  0  0  0  0
  1  2  1  0
  2  3  1  0
  2 16  1  0
  3  4  2  0
  3  9  1  0
  4  5  1  0
  5  6  2  0
  6  7  1  0
  7  8  2  0
  7  9  1  0
  9 10  2  0
 10 11  1  0
 11 12  2  0
 11 16  1  0
 12 13  1  0
 13 14  2  0
 14 15  1  0
 15 16  2  0
M  END
>  <Conformer_ID>  (2) 
2

$$$$
ligand_0
     RDKit          3D

 16 18  0  0  0  0  0  0  0  0999 V2000
  -51.2960    6.5730  -20.1900 C   0  0  0  0  0  0  0  0  0  0  0  0
  -50.9930    6.5970  -21.6370 N   0  0  0  0  0  0  0  0  0  0  0  0
  -51.8790    6.0490  -22.5420 C   0  0  0  0  0  0  0  0  0  0  0  0
  -52.9840    5.2520  -22.1710 C   0  0  0  0  0  0  0  0  0  0  0  0
  -53.8710    4.7710  -23.1390 C   0  0  0  0  0  0  0  0  0  0  0  0
  -53.6830    5.0500  -24.4950 C   0  0  0  0  0  0  0  0  0  0  0  0
  -52.5810    5.7920  -24.9260 C   0  0  0  0  0  0  0  0  0  0  0  0
  -52.4160    6.0070  -26.1570 O   0  0  0  0  0  0  0  0  0  0  0  0
  -51.6620    6.2810  -23.9910 C   0  0  0  0  0  0  0  0  0  0  0  0
  -50.5570    6.9450  -24.3910 N   0  0  0  0  0  0  0  0  0  0  0  0
  -49.6360    7.3820  -23.5000 C   0  0  0  0  0  0  0  0  0  0  0  0
  -48.4840    8.0180  -23.9780 C   0  0  0  0  0  0  0  0  0  0  0  0
  -47.4900    8.4330  -23.0950 C   0  0  0  0  0  0  0  0  0  0  0  0
  -47.6330    8.2050  -21.7280 C   0  0  0  0  0  0  0  0  0  0  0  0
  -48.7810    7.5810  -21.2330 C   0  0  0  0  0  0  0  0  0  0  0  0
  -49.8270    7.1810  -22.1030 C   0  0  0  0  0  0  0  0  0  0  0  0
  1  2  1  0
  2  3  1  0
  2 16  1  0
  3  4  2  0
  3  9  1  0
  4  5  1  0
  5  6  2  0
  6  7  1  0
  7  8  2  0
  7  9  1  0
  9 10  2  0
 10 11  1  0
 11 12  2  0
 11 16  1  0
 12 13  1  0
 13 14  2  0
 14 15  1  0
 15 16  2  0
M  END
>  <Conformer_ID>  (3) 
3

$$$$
ligand_0
     RDKit          3D

 16 18  0  0  0  0  0  0  0  0999 V2000
  -51.3680    8.0150  -25.6280 C   0  0  0  0  0  0  0  0  0  0  0  0
  -51.2480    7.1710  -24.4200 N   0  0  0  0  0  0  0  0  0  0  0  0
  -50.0600    7.1250  -23.7200 C   0  0  0  0  0  0  0  0  0  0  0  0
  -48.8480    7.6690  -24.1980 C   0  0  0  0  0  0  0  0  0  0  0  0
  -47.6930    7.6320  -23.4110 C   0  0  0  0  0  0  0  0  0  0  0  0
  -47.6990    7.0460  -22.1430 C   0  0  0  0  0  0  0  0  0  0  0  0
  -48.8560    6.4490  -21.6370 C   0  0  0  0  0  0  0  0  0  0  0  0
  -48.8320    5.9000  -20.5020 O   0  0  0  0  0  0  0  0  0  0  0  0
  -50.0310    6.4520  -22.3980 C   0  0  0  0  0  0  0  0  0  0  0  0
  -51.1420    5.8260  -21.9560 N   0  0  0  0  0  0  0  0  0  0  0  0
  -52.2700    5.7810  -22.7030 C   0  0  0  0  0  0  0  0  0  0  0  0
  -53.3730    5.0710  -22.2150 C   0  0  0  0  0  0  0  0  0  0  0  0
  -54.5330    4.9590  -22.9790 C   0  0  0  0  0  0  0  0  0  0  0  0
  -54.5950    5.5430  -24.2410 C   0  0  0  0  0  0  0  0  0  0  0  0
  -53.5070    6.2640  -24.7400 C   0  0  0  0  0  0  0  0  0  0  0  0
  -52.3270    6.4280  -23.9700 C   0  0  0  0  0  0  0  0  0  0  0  0
  1  2  1  0
  2  3  1  0
  2 16  1  0
  3  4  2  0
  3  9  1  0
  4  5  1  0
  5  6  2  0
  6  7  1  0
  7  8  2  0
  7  9  1  0
  9 10  2  0
 10 11  1  0
 11 12  2  0
 11 16  1  0
 12 13  1  0
 13 14  2  0
 14 15  1  0
 15 16  2  0
M  END
>  <Conformer_ID>  (4) 
4

$$$$
ligand_0
     RDKit          3D

 16 18  0  0  0  0  0  0  0  0999 V2000
  -48.3870    8.6900  -25.1590 C   0  0  0  0  0  0  0  0  0  0  0  0
  -49.1020    7.8200  -24.2010 N   0  0  0  0  0  0  0  0  0  0  0  0
  -50.4100    7.4510  -24.4400 C   0  0  0  0  0  0  0  0  0  0  0  0
  -51.2150    8.0270  -25.4470 C   0  0  0  0  0  0  0  0  0  0  0  0
  -52.5170    7.5680  -25.6680 C   0  0  0  0  0  0  0  0  0  0  0  0
  -53.0630    6.5420  -24.8920 C   0  0  0  0  0  0  0  0  0  0  0  0
  -52.3320    5.9660  -23.8500 C   0  0  0  0  0  0  0  0  0  0  0  0
  -52.8550    5.0620  -23.1450 O   0  0  0  0  0  0  0  0  0  0  0  0
  -51.0300    6.4060  -23.5880 C   0  0  0  0  0  0  0  0  0  0  0  0
  -50.3290    5.9090  -22.5470 N   0  0  0  0  0  0  0  0  0  0  0  0
  -49.0870    6.3600  -22.2530 C   0  0  0  0  0  0  0  0  0  0  0  0
  -48.4310    5.8450  -21.1290 C   0  0  0  0  0  0  0  0  0  0  0  0
  -47.1740    6.3220  -20.7650 C   0  0  0  0  0  0  0  0  0  0  0  0
  -46.5680    7.3280  -21.5150 C   0  0  0  0  0  0  0  0  0  0  0  0
  -47.2030    7.8470  -22.6450 C   0  0  0  0  0  0  0  0  0  0  0  0
  -48.4660    7.3540  -23.0620 C   0  0  0  0  0  0  0  0  0  0  0  0
  1  2  1  0
  2  3  1  0
  2 16  1  0
  3  4  2  0
  3  9  1  0
  4  5  1  0
  5  6  2  0
  6  7  1  0
  7  8  2  0
  7  9  1  0
  9 10  2  0
 10 11  1  0
 11 12  2  0
 11 16  1  0
 12 13  1  0
 13 14  2  0
 14 15  1  0
 15 16  2  0
M  END
>  <Conformer_ID>  (5) 
5

$$$$
ligand_0
     RDKit          3D

 16 18  0  0  0  0  0  0  0  0999 V2000
  -50.0010    6.3530  -23.3130 C   0  0  0  0  0  0  0  0  0  0  0  0
  -48.8230    7.2460  -23.3080 N   0  0  0  0  0  0  0  0  0  0  0  0
  -48.7240    8.2710  -24.2260 C   0  0  0  0  0  0  0  0  0  0  0  0
  -49.5790    8.4090  -25.3410 C   0  0  0  0  0  0  0  0  0  0  0  0
  -49.4540    9.5030  -26.2030 C   0  0  0  0  0  0  0  0  0  0  0  0
  -48.4740   10.4770  -25.9970 C   0  0  0  0  0  0  0  0  0  0  0  0
  -47.5690   10.3690  -24.9390 C   0  0  0  0  0  0  0  0  0  0  0  0
  -46.6750   11.2460  -24.7890 O   0  0  0  0  0  0  0  0  0  0  0  0
  -47.6510    9.2830  -24.0610 C   0  0  0  0  0  0  0  0  0  0  0  0
  -46.7480    9.1250  -23.0700 N   0  0  0  0  0  0  0  0  0  0  0  0
  -46.7880    8.0540  -22.2440 C   0  0  0  0  0  0  0  0  0  0  0  0
  -45.7920    7.9170  -21.2700 C   0  0  0  0  0  0  0  0  0  0  0  0
  -45.7700    6.8010  -20.4360 C   0  0  0  0  0  0  0  0  0  0  0  0
  -46.7360    5.8080  -20.5770 C   0  0  0  0  0  0  0  0  0  0  0  0
  -47.7430    5.9330  -21.5370 C   0  0  0  0  0  0  0  0  0  0  0  0
  -47.8130    7.0750  -22.3750 C   0  0  0  0  0  0  0  0  0  0  0  0
  1  2  1  0
  2  3  1  0
  2 16  1  0
  3  4  2  0
  3  9  1  0
  4  5  1  0
  5  6  2  0
  6  7  1  0
  7  8  2  0
  7  9  1  0
  9 10  2  0
 10 11  1  0
 11 12  2  0
 11 16  1  0
 12 13  1  0
 13 14  2  0
 14 15  1  0
 15 16  2  0
M  END
>  <Conformer_ID>  (6) 
6

$$$$
ligand_0
     RDKit          3D

 16 18  0  0  0  0  0  0  0  0999 V2000
  -47.6090    7.9970  -24.6040 C   0  0  0  0  0  0  0  0  0  0  0  0
  -48.0620    7.5320  -23.2750 N   0  0  0  0  0  0  0  0  0  0  0  0
  -49.3600    7.1030  -23.0940 C   0  0  0  0  0  0  0  0  0  0  0  0
  -50.3830    7.2780  -24.0520 C   0  0  0  0  0  0  0  0  0  0  0  0
  -51.6660    6.7710  -23.8230 C   0  0  0  0  0  0  0  0  0  0  0  0
  -51.9770    6.0950  -22.6400 C   0  0  0  0  0  0  0  0  0  0  0  0
  -51.0190    5.9340  -21.6360 C   0  0  0  0  0  0  0  0  0  0  0  0
  -51.3290    5.3460  -20.5650 O   0  0  0  0  0  0  0  0  0  0  0  0
  -49.7270    6.4380  -21.8200 C   0  0  0  0  0  0  0  0  0  0  0  0
  -48.8050    6.3500  -20.8380 N   0  0  0  0  0  0  0  0  0  0  0  0
  -47.5660    6.8750  -20.9850 C   0  0  0  0  0  0  0  0  0  0  0  0
  -46.6710    6.7990  -19.9110 C   0  0  0  0  0  0  0  0  0  0  0  0
  -45.4050    7.3750  -20.0060 C   0  0  0  0  0  0  0  0  0  0  0  0
  -45.0290    8.0410  -21.1700 C   0  0  0  0  0  0  0  0  0  0  0  0
  -45.9070    8.1170  -22.2550 C   0  0  0  0  0  0  0  0  0  0  0  0
  -47.1860    7.5080  -22.2020 C   0  0  0  0  0  0  0  0  0  0  0  0
  1  2  1  0
  2  3  1  0
  2 16  1  0
  3  4  2  0
  3  9  1  0
  4  5  1  0
  5  6  2  0
  6  7  1  0
  7  8  2  0
  7  9  1  0
  9 10  2  0
 10 11  1  0
 11 12  2  0
 11 16  1  0
 12 13  1  0
 13 14  2  0
 14 15  1  0
 15 16  2  0
M  END
>  <Conformer_ID>  (7) 
7

$$$$
ligand_0
     RDKit          3D

 16 18  0  0  0  0  0  0  0  0999 V2000
  -46.2010   10.0340  -33.5510 C   0  0  0  0  0  0  0  0  0  0  0  0
  -47.0480    9.1570  -32.7150 N   0  0  0  0  0  0  0  0  0  0  0  0
  -48.4170    9.3240  -32.6980 C   0  0  0  0  0  0  0  0  0  0  0  0
  -49.0770   10.4360  -33.2660 C   0  0  0  0  0  0  0  0  0  0  0  0
  -50.4730   10.5150  -33.2580 C   0  0  0  0  0  0  0  0  0  0  0  0
  -51.2510    9.5100  -32.6770 C   0  0  0  0  0  0  0  0  0  0  0  0
  -50.6530    8.4110  -32.0570 C   0  0  0  0  0  0  0  0  0  0  0  0
  -51.3740    7.5300  -31.5150 O   0  0  0  0  0  0  0  0  0  0  0  0
  -49.2590    8.3000  -32.0320 C   0  0  0  0  0  0  0  0  0  0  0  0
  -48.6580    7.2790  -31.3840 N   0  0  0  0  0  0  0  0  0  0  0  0
  -47.3090    7.1860  -31.3110 C   0  0  0  0  0  0  0  0  0  0  0  0
  -46.7450    6.1340  -30.5800 C   0  0  0  0  0  0  0  0  0  0  0  0
  -45.3630    6.0350  -30.4390 C   0  0  0  0  0  0  0  0  0  0  0  0
  -44.5340    6.9940  -31.0170 C   0  0  0  0  0  0  0  0  0  0  0  0
  -45.0800    8.0450  -31.7580 C   0  0  0  0  0  0  0  0  0  0  0  0
  -46.4800    8.1500  -31.9520 C   0  0  0  0  0  0  0  0  0  0  0  0
  1  2  1  0
  2  3  1  0
  2 16  1  0
  3  4  2  0
  3  9  1  0
  4  5  1  0
  5  6  2  0
  6  7  1  0
  7  8  2  0
  7  9  1  0
  9 10  2  0
 10 11  1  0
 11 12  2  0
 11 16  1  0
 12 13  1  0
 13 14  2  0
 14 15  1  0
 15 16  2  0
M  END
>  <Conformer_ID>  (8) 
8

$$$$
ligand_0
     RDKit          3D

 16 18  0  0  0  0  0  0  0  0999 V2000
  -58.8910   -2.3580  -32.7970 C   0  0  0  0  0  0  0  0  0  0  0  0
  -60.2780   -1.8610  -32.6730 N   0  0  0  0  0  0  0  0  0  0  0  0
  -61.3200   -2.5590  -33.2480 C   0  0  0  0  0  0  0  0  0  0  0  0
  -61.1420   -3.6260  -34.1560 C   0  0  0  0  0  0  0  0  0  0  0  0
  -62.2430   -4.3230  -34.6610 C   0  0  0  0  0  0  0  0  0  0  0  0
  -63.5470   -3.9750  -34.2970 C   0  0  0  0  0  0  0  0  0  0  0  0
  -63.7880   -2.8980  -33.4420 C   0  0  0  0  0  0  0  0  0  0  0  0
  -64.9740   -2.5850  -33.1500 O   0  0  0  0  0  0  0  0  0  0  0  0
  -62.7140   -2.1670  -32.9240 C   0  0  0  0  0  0  0  0  0  0  0  0
  -62.9260   -1.0830  -32.1470 N   0  0  0  0  0  0  0  0  0  0  0  0
  -61.8970   -0.3390  -31.6790 C   0  0  0  0  0  0  0  0  0  0  0  0
  -62.1820    0.8040  -30.9220 C   0  0  0  0  0  0  0  0  0  0  0  0
  -61.1510    1.6240  -30.4680 C   0  0  0  0  0  0  0  0  0  0  0  0
  -59.8280    1.3150  -30.7780 C   0  0  0  0  0  0  0  0  0  0  0  0
  -59.5250    0.1730  -31.5240 C   0  0  0  0  0  0  0  0  0  0  0  0
  -60.5500   -0.7010  -31.9670 C   0  0  0  0  0  0  0  0  0  0  0  0
  1  2  1  0
  2  3  1  0
  2 16  1  0
  3  4  2  0
  3  9  1  0
  4  5  1  0
  5  6  2  0
  6  7  1  0
  7  8  2  0
  7  9  1  0
  9 10  2  0
 10 11  1  0
 11 12  2  0
 11 16  1  0
 12 13  1  0
 13 14  2  0
 14 15  1  0
 15 16  2  0
M  END
>  <Conformer_ID>  (9) 
9

$$$$
ligand_0
     RDKit          3D

 16 18  0  0  0  0  0  0  0  0999 V2000
  -46.4370    6.8350  -49.0850 C   0  0  0  0  0  0  0  0  0  0  0  0
  -46.0380    7.8570  -48.0940 N   0  0  0  0  0  0  0  0  0  0  0  0
  -44.7690    8.3960  -48.1230 C   0  0  0  0  0  0  0  0  0  0  0  0
  -43.7170    7.8800  -48.9110 C   0  0  0  0  0  0  0  0  0  0  0  0
  -42.4680    8.5080  -48.9310 C   0  0  0  0  0  0  0  0  0  0  0  0
  -42.2200    9.6480  -48.1630 C   0  0  0  0  0  0  0  0  0  0  0  0
  -43.2060   10.1760  -47.3270 C   0  0  0  0  0  0  0  0  0  0  0  0
  -42.9510   11.1890  -46.6210 O   0  0  0  0  0  0  0  0  0  0  0  0
  -44.4660    9.5700  -47.2680 C   0  0  0  0  0  0  0  0  0  0  0  0
  -45.4130   10.0240  -46.4200 N   0  0  0  0  0  0  0  0  0  0  0  0
  -46.6190    9.4180  -46.3190 C   0  0  0  0  0  0  0  0  0  0  0  0
  -47.5400    9.9030  -45.3820 C   0  0  0  0  0  0  0  0  0  0  0  0
  -48.7710    9.2720  -45.2130 C   0  0  0  0  0  0  0  0  0  0  0  0
  -49.0850    8.1450  -45.9680 C   0  0  0  0  0  0  0  0  0  0  0  0
  -48.1810    7.6530  -46.9140 C   0  0  0  0  0  0  0  0  0  0  0  0
  -46.9370    8.2970  -47.1360 C   0  0  0  0  0  0  0  0  0  0  0  0
  1  2  1  0
  2  3  1  0
  2 16  1  0
  3  4  2  0
  3  9  1  0
  4  5  1  0
  5  6  2  0
  6  7  1  0
  7  8  2  0
  7  9  1  0
  9 10  2  0
 10 11  1  0
 11 12  2  0
 11 16  1  0
 12 13  1  0
 13 14  2  0
 14 15  1  0
 15 16  2  0
M  END
>  <Conformer_ID>  (10) 
10

$$$$
ligand_0
     RDKit          3D

 16 18  0  0  0  0  0  0  0  0999 V2000
  -59.4650   -2.5940  -30.0320 C   0  0  0  0  0  0  0  0  0  0  0  0
  -60.3980   -2.6670  -31.1760 N   0  0  0  0  0  0  0  0  0  0  0  0
  -60.3030   -3.7000  -32.0860 C   0  0  0  0  0  0  0  0  0  0  0  0
  -59.2180   -4.6030  -32.1350 C   0  0  0  0  0  0  0  0  0  0  0  0
  -59.2120   -5.6590  -33.0510 C   0  0  0  0  0  0  0  0  0  0  0  0
  -60.2660   -5.8420  -33.9510 C   0  0  0  0  0  0  0  0  0  0  0  0
  -61.3420   -4.9530  -33.9820 C   0  0  0  0  0  0  0  0  0  0  0  0
  -62.2680   -5.1210  -34.8210 O   0  0  0  0  0  0  0  0  0  0  0  0
  -61.3810   -3.8750  -33.0910 C   0  0  0  0  0  0  0  0  0  0  0  0
  -62.3790   -2.9680  -33.1450 N   0  0  0  0  0  0  0  0  0  0  0  0
  -62.4030   -1.8950  -32.3210 C   0  0  0  0  0  0  0  0  0  0  0  0
  -63.4350   -0.9600  -32.4610 C   0  0  0  0  0  0  0  0  0  0  0  0
  -63.4640    0.1840  -31.6660 C   0  0  0  0  0  0  0  0  0  0  0  0
  -62.4530    0.4090  -30.7340 C   0  0  0  0  0  0  0  0  0  0  0  0
  -61.4210   -0.5190  -30.5730 C   0  0  0  0  0  0  0  0  0  0  0  0
  -61.3860   -1.7100  -31.3410 C   0  0  0  0  0  0  0  0  0  0  0  0
  1  2  1  0
  2  3  1  0
  2 16  1  0
  3  4  2  0
  3  9  1  0
  4  5  1  0
  5  6  2  0
  6  7  1  0
  7  8  2  0
  7  9  1  0
  9 10  2  0
 10 11  1  0
 11 12  2  0
 11 16  1  0
 12 13  1  0
 13 14  2  0
 14 15  1  0
 15 16  2  0
M  END
>  <Conformer_ID>  (11) 
11

$$$$
ligand_0
     RDKit          3D

 16 18  0  0  0  0  0  0  0  0999 V2000
  -51.7130   22.6430  -21.4260 C   0  0  0  0  0  0  0  0  0  0  0  0
  -51.6230   21.7630  -20.2420 N   0  0  0  0  0  0  0  0  0  0  0  0
  -50.4710   21.0470  -19.9930 C   0  0  0  0  0  0  0  0  0  0  0  0
  -49.4140   20.9170  -20.9220 C   0  0  0  0  0  0  0  0  0  0  0  0
  -48.2510   20.2190  -20.5830 C   0  0  0  0  0  0  0  0  0  0  0  0
  -48.1070   19.6190  -19.3290 C   0  0  0  0  0  0  0  0  0  0  0  0
  -49.1380   19.6720  -18.3880 C   0  0  0  0  0  0  0  0  0  0  0  0
  -48.9970   19.1000  -17.2740 O   0  0  0  0  0  0  0  0  0  0  0  0
  -50.3230   20.3510  -18.6920 C   0  0  0  0  0  0  0  0  0  0  0  0
  -51.3560   20.3610  -17.8220 N   0  0  0  0  0  0  0  0  0  0  0  0
  -52.5250   20.9730  -18.1230 C   0  0  0  0  0  0  0  0  0  0  0  0
  -53.5780   20.9030  -17.2030 C   0  0  0  0  0  0  0  0  0  0  0  0
  -54.8130   21.4750  -17.5010 C   0  0  0  0  0  0  0  0  0  0  0  0
  -55.0100   22.1090  -18.7260 C   0  0  0  0  0  0  0  0  0  0  0  0
  -53.9670   22.1960  -19.6520 C   0  0  0  0  0  0  0  0  0  0  0  0
  -52.6880   21.6570  -19.3610 C   0  0  0  0  0  0  0  0  0  0  0  0
  1  2  1  0
  2  3  1  0
  2 16  1  0
  3  4  2  0
  3  9  1  0
  4  5  1  0
  5  6  2  0
  6  7  1  0
  7  8  2  0
  7  9  1  0
  9 10  2  0
 10 11  1  0
 11 12  2  0
 11 16  1  0
 12 13  1  0
 13 14  2  0
 14 15  1  0
 15 16  2  0
M  END
>  <Conformer_ID>  (12) 
12

$$$$
ligand_0
     RDKit          3D

 16 18  0  0  0  0  0  0  0  0999 V2000
  -38.5860    4.9730  -40.9840 C   0  0  0  0  0  0  0  0  0  0  0  0
  -38.6580    3.8980  -39.9720 N   0  0  0  0  0  0  0  0  0  0  0  0
  -38.5150    4.1940  -38.6320 C   0  0  0  0  0  0  0  0  0  0  0  0
  -38.0780    5.4480  -38.1500 C   0  0  0  0  0  0  0  0  0  0  0  0
  -38.0060    5.6960  -36.7760 C   0  0  0  0  0  0  0  0  0  0  0  0
  -38.3450    4.7110  -35.8440 C   0  0  0  0  0  0  0  0  0  0  0  0
  -38.7370    3.4370  -36.2610 C   0  0  0  0  0  0  0  0  0  0  0  0
  -39.0120    2.5550  -35.4030 O   0  0  0  0  0  0  0  0  0  0  0  0
  -38.8110    3.1430  -37.6270 C   0  0  0  0  0  0  0  0  0  0  0  0
  -39.1260    1.9010  -38.0520 N   0  0  0  0  0  0  0  0  0  0  0  0
  -39.1540    1.5920  -39.3690 C   0  0  0  0  0  0  0  0  0  0  0  0
  -39.4340    0.2730  -39.7460 C   0  0  0  0  0  0  0  0  0  0  0  0
  -39.4200   -0.0940  -41.0900 C   0  0  0  0  0  0  0  0  0  0  0  0
  -39.1130    0.8500  -42.0660 C   0  0  0  0  0  0  0  0  0  0  0  0
  -38.8400    2.1730  -41.7090 C   0  0  0  0  0  0  0  0  0  0  0  0
  -38.8840    2.5850  -40.3530 C   0  0  0  0  0  0  0  0  0  0  0  0
  1  2  1  0
  2  3  1  0
  2 16  1  0
  3  4  2  0
  3  9  1  0
  4  5  1  0
  5  6  2  0
  6  7  1  0
  7  8  2  0
  7  9  1  0
  9 10  2  0
 10 11  1  0
 11 12  2  0
 11 16  1  0
 12 13  1  0
 13 14  2  0
 14 15  1  0
 15 16  2  0
M  END
>  <Conformer_ID>  (13) 
13

$$$$
ligand_0
     RDKit          3D

 16 18  0  0  0  0  0  0  0  0999 V2000
  -63.3980    8.0670   -5.0300 C   0  0  0  0  0  0  0  0  0  0  0  0
  -63.9770    9.3280   -5.5430 N   0  0  0  0  0  0  0  0  0  0  0  0
  -63.3140   10.0560   -6.5080 C   0  0  0  0  0  0  0  0  0  0  0  0
  -61.9840    9.7990   -6.9070 C   0  0  0  0  0  0  0  0  0  0  0  0
  -61.3910   10.5440   -7.9300 C   0  0  0  0  0  0  0  0  0  0  0  0
  -62.0870   11.5700   -8.5740 C   0  0  0  0  0  0  0  0  0  0  0  0
  -63.3880   11.9020   -8.1900 C   0  0  0  0  0  0  0  0  0  0  0  0
  -63.9870   12.8500   -8.7660 O   0  0  0  0  0  0  0  0  0  0  0  0
  -64.0140   11.1890   -7.1620 C   0  0  0  0  0  0  0  0  0  0  0  0
  -65.2460   11.5340   -6.7320 N   0  0  0  0  0  0  0  0  0  0  0  0
  -65.8430   10.8830   -5.7060 C   0  0  0  0  0  0  0  0  0  0  0  0
  -67.0990   11.3210   -5.2700 C   0  0  0  0  0  0  0  0  0  0  0  0
  -67.7210   10.7090   -4.1840 C   0  0  0  0  0  0  0  0  0  0  0  0
  -67.0860    9.6640   -3.5160 C   0  0  0  0  0  0  0  0  0  0  0  0
  -65.8370    9.2080   -3.9440 C   0  0  0  0  0  0  0  0  0  0  0  0
  -65.1970    9.7850   -5.0700 C   0  0  0  0  0  0  0  0  0  0  0  0
  1  2  1  0
  2  3  1  0
  2 16  1  0
  3  4  2  0
  3  9  1  0
  4  5  1  0
  5  6  2  0
  6  7  1  0
  7  8  2  0
  7  9  1  0
  9 10  2  0
 10 11  1  0
 11 12  2  0
 11 16  1  0
 12 13  1  0
 13 14  2  0
 14 15  1  0
 15 16  2  0
M  END
>  <Conformer_ID>  (14) 
14

$$$$
ligand_0
     RDKit          3D

 16 18  0  0  0  0  0  0  0  0999 V2000
  -52.2270   22.3140  -20.6860 C   0  0  0  0  0  0  0  0  0  0  0  0
  -52.2570   22.0140  -19.2380 N   0  0  0  0  0  0  0  0  0  0  0  0
  -53.4510   21.7130  -18.6160 C   0  0  0  0  0  0  0  0  0  0  0  0
  -54.7150   21.8810  -19.2220 C   0  0  0  0  0  0  0  0  0  0  0  0
  -55.8820   21.5050  -18.5510 C   0  0  0  0  0  0  0  0  0  0  0  0
  -55.8340   20.9710  -17.2610 C   0  0  0  0  0  0  0  0  0  0  0  0
  -54.6170   20.8260  -16.5910 C   0  0  0  0  0  0  0  0  0  0  0  0
  -54.6000   20.3680  -15.4170 O   0  0  0  0  0  0  0  0  0  0  0  0
  -53.4260   21.2020  -17.2230 C   0  0  0  0  0  0  0  0  0  0  0  0
  -52.2460   21.1300  -16.5720 N   0  0  0  0  0  0  0  0  0  0  0  0
  -51.0930   21.5350  -17.1540 C   0  0  0  0  0  0  0  0  0  0  0  0
  -49.9090   21.4870  -16.4100 C   0  0  0  0  0  0  0  0  0  0  0  0
  -48.7130   21.9440  -16.9580 C   0  0  0  0  0  0  0  0  0  0  0  0
  -48.6930   22.4660  -18.2500 C   0  0  0  0  0  0  0  0  0  0  0  0
  -49.8640   22.5120  -19.0100 C   0  0  0  0  0  0  0  0  0  0  0  0
  -51.0890   22.0190  -18.4940 C   0  0  0  0  0  0  0  0  0  0  0  0
  1  2  1  0
  2  3  1  0
  2 16  1  0
  3  4  2  0
  3  9  1  0
  4  5  1  0
  5  6  2  0
  6  7  1  0
  7  8  2  0
  7  9  1  0
  9 10  2  0
 10 11  1  0
 11 12  2  0
 11 16  1  0
 12 13  1  0
 13 14  2  0
 14 15  1  0
 15 16  2  0
M  END
>  <Conformer_ID>  (15) 
15

$$$$
ligand_0
     RDKit          3D

 16 18  0  0  0  0  0  0  0  0999 V2000
  -32.1920   13.0780  -27.3090 C   0  0  0  0  0  0  0  0  0  0  0  0
  -33.6430   12.8030  -27.3830 N   0  0  0  0  0  0  0  0  0  0  0  0
  -34.5340   13.5720  -26.6630 C   0  0  0  0  0  0  0  0  0  0  0  0
  -34.1450   14.4910  -25.6630 C   0  0  0  0  0  0  0  0  0  0  0  0
  -35.1000   15.2750  -25.0080 C   0  0  0  0  0  0  0  0  0  0  0  0
  -36.4590   15.1620  -25.3100 C   0  0  0  0  0  0  0  0  0  0  0  0
  -36.9080   14.2360  -26.2540 C   0  0  0  0  0  0  0  0  0  0  0  0
  -38.1420   14.1310  -26.4900 O   0  0  0  0  0  0  0  0  0  0  0  0
  -35.9870   13.4220  -26.9230 C   0  0  0  0  0  0  0  0  0  0  0  0
  -36.4030   12.4770  -27.7930 N   0  0  0  0  0  0  0  0  0  0  0  0
  -35.5250   11.6520  -28.4110 C   0  0  0  0  0  0  0  0  0  0  0  0
  -36.0210   10.6560  -29.2610 C   0  0  0  0  0  0  0  0  0  0  0  0
  -35.1520    9.7550  -29.8730 C   0  0  0  0  0  0  0  0  0  0  0  0
  -33.7830    9.8340  -29.6300 C   0  0  0  0  0  0  0  0  0  0  0  0
  -33.2700   10.8280  -28.7920 C   0  0  0  0  0  0  0  0  0  0  0  0
  -34.1260   11.7820  -28.1860 C   0  0  0  0  0  0  0  0  0  0  0  0
  1  2  1  0
  2  3  1  0
  2 16  1  0
  3  4  2  0
  3  9  1  0
  4  5  1  0
  5  6  2  0
  6  7  1  0
  7  8  2  0
  7  9  1  0
  9 10  2  0
 10 11  1  0
 11 12  2  0
 11 16  1  0
 12 13  1  0
 13 14  2  0
 14 15  1  0
 15 16  2  0
M  END
>  <Conformer_ID>  (16) 
16

$$$$
ligand_0
     RDKit          3D

 16 18  0  0  0  0  0  0  0  0999 V2000
  -46.6020   -5.9040  -39.4420 C   0  0  0  0  0  0  0  0  0  0  0  0
  -46.0200   -4.7170  -38.7800 N   0  0  0  0  0  0  0  0  0  0  0  0
  -45.4250   -4.8340  -37.5410 C   0  0  0  0  0  0  0  0  0  0  0  0
  -45.5200   -5.9880  -36.7330 C   0  0  0  0  0  0  0  0  0  0  0  0
  -44.8480   -6.0560  -35.5080 C   0  0  0  0  0  0  0  0  0  0  0  0
  -44.0810   -4.9840  -35.0430 C   0  0  0  0  0  0  0  0  0  0  0  0
  -43.9900   -3.7990  -35.7760 C   0  0  0  0  0  0  0  0  0  0  0  0
  -43.3160   -2.8340  -35.3240 O   0  0  0  0  0  0  0  0  0  0  0  0
  -44.6580   -3.6850  -37.0010 C   0  0  0  0  0  0  0  0  0  0  0  0
  -44.6360   -2.5270  -37.6940 N   0  0  0  0  0  0  0  0  0  0  0  0
  -45.3160   -2.3880  -38.8560 C   0  0  0  0  0  0  0  0  0  0  0  0
  -45.3000   -1.1460  -39.5030 C   0  0  0  0  0  0  0  0  0  0  0  0
  -46.0310   -0.9510  -40.6720 C   0  0  0  0  0  0  0  0  0  0  0  0
  -46.7950   -1.9900  -41.1980 C   0  0  0  0  0  0  0  0  0  0  0  0
  -46.8160   -3.2390  -40.5710 C   0  0  0  0  0  0  0  0  0  0  0  0
  -46.0510   -3.4790  -39.4010 C   0  0  0  0  0  0  0  0  0  0  0  0
  1  2  1  0
  2  3  1  0
  2 16  1  0
  3  4  2  0
  3  9  1  0
  4  5  1  0
  5  6  2  0
  6  7  1  0
  7  8  2  0
  7  9  1  0
  9 10  2  0
 10 11  1  0
 11 12  2  0
 11 16  1  0
 12 13  1  0
 13 14  2  0
 14 15  1  0
 15 16  2  0
M  END
>  <Conformer_ID>  (17) 
17

$$$$
ligand_0
     RDKit          3D

 16 18  0  0  0  0  0  0  0  0999 V2000
  -47.6290   22.1410  -19.8570 C   0  0  0  0  0  0  0  0  0  0  0  0
  -48.9740   21.6410  -20.2150 N   0  0  0  0  0  0  0  0  0  0  0  0
  -49.9420   21.4950  -19.2430 C   0  0  0  0  0  0  0  0  0  0  0  0
  -49.6810   21.5820  -17.8580 C   0  0  0  0  0  0  0  0  0  0  0  0
  -50.7210   21.4750  -16.9300 C   0  0  0  0  0  0  0  0  0  0  0  0
  -52.0390   21.2630  -17.3420 C   0  0  0  0  0  0  0  0  0  0  0  0
  -52.3510   21.1190  -18.6960 C   0  0  0  0  0  0  0  0  0  0  0  0
  -53.5430   20.9000  -19.0430 O   0  0  0  0  0  0  0  0  0  0  0  0
  -51.3380   21.2070  -19.6560 C   0  0  0  0  0  0  0  0  0  0  0  0
  -51.6060   21.0090  -20.9650 N   0  0  0  0  0  0  0  0  0  0  0  0
  -50.6270   21.0440  -21.8990 C   0  0  0  0  0  0  0  0  0  0  0  0
  -50.9590   20.7770  -23.2320 C   0  0  0  0  0  0  0  0  0  0  0  0
  -49.9690   20.7530  -24.2130 C   0  0  0  0  0  0  0  0  0  0  0  0
  -48.6400   20.9810  -23.8670 C   0  0  0  0  0  0  0  0  0  0  0  0
  -48.2920   21.2590  -22.5420 C   0  0  0  0  0  0  0  0  0  0  0  0
  -49.2820   21.3280  -21.5290 C   0  0  0  0  0  0  0  0  0  0  0  0
  1  2  1  0
  2  3  1  0
  2 16  1  0
  3  4  2  0
  3  9  1  0
  4  5  1  0
  5  6  2  0
  6  7  1  0
  7  8  2  0
  7  9  1  0
  9 10  2  0
 10 11  1  0
 11 12  2  0
 11 16  1  0
 12 13  1  0
 13 14  2  0
 14 15  1  0
 15 16  2  0
M  END
>  <Conformer_ID>  (18) 
18

$$$$
ligand_0
     RDKit          3D

 16 18  0  0  0  0  0  0  0  0999 V2000
  -61.5320   -5.3860  -31.5500 C   0  0  0  0  0  0  0  0  0  0  0  0
  -60.5790   -4.4160  -30.9710 N   0  0  0  0  0  0  0  0  0  0  0  0
  -60.2790   -3.2490  -31.6430 C   0  0  0  0  0  0  0  0  0  0  0  0
  -60.6560   -2.9970  -32.9800 C   0  0  0  0  0  0  0  0  0  0  0  0
  -60.3630   -1.7700  -33.5830 C   0  0  0  0  0  0  0  0  0  0  0  0
  -59.6780   -0.7690  -32.8900 C   0  0  0  0  0  0  0  0  0  0  0  0
  -59.2370   -0.9790  -31.5810 C   0  0  0  0  0  0  0  0  0  0  0  0
  -58.5970   -0.0710  -30.9850 O   0  0  0  0  0  0  0  0  0  0  0  0
  -59.4990   -2.1970  -30.9460 C   0  0  0  0  0  0  0  0  0  0  0  0
  -59.0270   -2.4450  -29.7050 N   0  0  0  0  0  0  0  0  0  0  0  0
  -59.2320   -3.6370  -29.0980 C   0  0  0  0  0  0  0  0  0  0  0  0
  -58.6730   -3.8540  -27.8330 C   0  0  0  0  0  0  0  0  0  0  0  0
  -58.8180   -5.0860  -27.2000 C   0  0  0  0  0  0  0  0  0  0  0  0
  -59.5120   -6.1160  -27.8310 C   0  0  0  0  0  0  0  0  0  0  0  0
  -60.0850   -5.9140  -29.0900 C   0  0  0  0  0  0  0  0  0  0  0  0
  -59.9870   -4.6590  -29.7420 C   0  0  0  0  0  0  0  0  0  0  0  0
  1  2  1  0
  2  3  1  0
  2 16  1  0
  3  4  2  0
  3  9  1  0
  4  5  1  0
  5  6  2  0
  6  7  1  0
  7  8  2  0
  7  9  1  0
  9 10  2  0
 10 11  1  0
 11 12  2  0
 11 16  1  0
 12 13  1  0
 13 14  2  0
 14 15  1  0
 15 16  2  0
M  END
>  <Conformer_ID>  (19) 
19

$$$$
ligand_0
     RDKit          3D

 16 18  0  0  0  0  0  0  0  0999 V2000
  -38.4580    4.3430  -40.9110 C   0  0  0  0  0  0  0  0  0  0  0  0
  -38.7180    3.5260  -39.7060 N   0  0  0  0  0  0  0  0  0  0  0  0
  -39.1500    2.2220  -39.8290 C   0  0  0  0  0  0  0  0  0  0  0  0
  -39.5820    1.6530  -41.0470 C   0  0  0  0  0  0  0  0  0  0  0  0
  -39.9580    0.3070  -41.1100 C   0  0  0  0  0  0  0  0  0  0  0  0
  -39.9330   -0.5040  -39.9730 C   0  0  0  0  0  0  0  0  0  0  0  0
  -39.5620    0.0160  -38.7310 C   0  0  0  0  0  0  0  0  0  0  0  0
  -39.5740   -0.7280  -37.7130 O   0  0  0  0  0  0  0  0  0  0  0  0
  -39.1910    1.3600  -38.6220 C   0  0  0  0  0  0  0  0  0  0  0  0
  -38.8890    1.9000  -37.4220 N   0  0  0  0  0  0  0  0  0  0  0  0
  -38.5750    3.2100  -37.2960 C   0  0  0  0  0  0  0  0  0  0  0  0
  -38.3250    3.7240  -36.0180 C   0  0  0  0  0  0  0  0  0  0  0  0
  -38.0500    5.0780  -35.8440 C   0  0  0  0  0  0  0  0  0  0  0  0
  -38.0370    5.9330  -36.9440 C   0  0  0  0  0  0  0  0  0  0  0  0
  -38.2750    5.4360  -38.2280 C   0  0  0  0  0  0  0  0  0  0  0  0
  -38.5190    4.0550  -38.4410 C   0  0  0  0  0  0  0  0  0  0  0  0
  1  2  1  0
  2  3  1  0
  2 16  1  0
  3  4  2  0
  3  9  1  0
  4  5  1  0
  5  6  2  0
  6  7  1  0
  7  8  2  0
  7  9  1  0
  9 10  2  0
 10 11  1  0
 11 12  2  0
 11 16  1  0
 12 13  1  0
 13 14  2  0
 14 15  1  0
 15 16  2  0
M  END
>  <Conformer_ID>  (20) 
20

$$$$
ligand_0
     RDKit          3D

 16 18  0  0  0  0  0  0  0  0999 V2000
  -61.5670   12.0140   -4.4110 C   0  0  0  0  0  0  0  0  0  0  0  0
  -62.3660   11.1340   -5.2910 N   0  0  0  0  0  0  0  0  0  0  0  0
  -63.3240   10.3000   -4.7550 C   0  0  0  0  0  0  0  0  0  0  0  0
  -63.4620   10.0530   -3.3710 C   0  0  0  0  0  0  0  0  0  0  0  0
  -64.4900    9.2350   -2.8930 C   0  0  0  0  0  0  0  0  0  0  0  0
  -65.3970    8.6280   -3.7650 C   0  0  0  0  0  0  0  0  0  0  0  0
  -65.2810    8.7960   -5.1470 C   0  0  0  0  0  0  0  0  0  0  0  0
  -66.0930    8.2160   -5.9180 O   0  0  0  0  0  0  0  0  0  0  0  0
  -64.2580    9.5960   -5.6680 C   0  0  0  0  0  0  0  0  0  0  0  0
  -64.0900    9.7220   -7.0020 N   0  0  0  0  0  0  0  0  0  0  0  0
  -63.0750   10.4540   -7.5180 C   0  0  0  0  0  0  0  0  0  0  0  0
  -62.9200   10.5030   -8.9090 C   0  0  0  0  0  0  0  0  0  0  0  0
  -61.8570   11.2030   -9.4750 C   0  0  0  0  0  0  0  0  0  0  0  0
  -60.9340   11.8490   -8.6560 C   0  0  0  0  0  0  0  0  0  0  0  0
  -61.0790   11.8190   -7.2660 C   0  0  0  0  0  0  0  0  0  0  0  0
  -62.1720   11.1470   -6.6630 C   0  0  0  0  0  0  0  0  0  0  0  0
  1  2  1  0
  2  3  1  0
  2 16  1  0
  3  4  2  0
  3  9  1  0
  4  5  1  0
  5  6  2  0
  6  7  1  0
  7  8  2  0
  7  9  1  0
  9 10  2  0
 10 11  1  0
 11 12  2  0
 11 16  1  0
 12 13  1  0
 13 14  2  0
 14 15  1  0
 15 16  2  0
M  END
>  <Conformer_ID>  (21) 
21

$$$$
ligand_0
     RDKit          3D

 16 18  0  0  0  0  0  0  0  0999 V2000
  -57.1650   24.2140  -15.9430 C   0  0  0  0  0  0  0  0  0  0  0  0
  -56.5420   23.0050  -15.3620 N   0  0  0  0  0  0  0  0  0  0  0  0
  -56.3470   22.9100  -13.9990 C   0  0  0  0  0  0  0  0  0  0  0  0
  -56.5040   23.9950  -13.1090 C   0  0  0  0  0  0  0  0  0  0  0  0
  -56.3410   23.8140  -11.7320 C   0  0  0  0  0  0  0  0  0  0  0  0
  -56.0040   22.5660  -11.2010 C   0  0  0  0  0  0  0  0  0  0  0  0
  -55.7880   21.4680  -12.0370 C   0  0  0  0  0  0  0  0  0  0  0  0
  -55.4580   20.3580  -11.5390 O   0  0  0  0  0  0  0  0  0  0  0  0
  -55.9290   21.6090  -13.4220 C   0  0  0  0  0  0  0  0  0  0  0  0
  -55.6640   20.5780  -14.2530 N   0  0  0  0  0  0  0  0  0  0  0  0
  -55.7500   20.7150  -15.5960 C   0  0  0  0  0  0  0  0  0  0  0  0
  -55.4110   19.6260  -16.4080 C   0  0  0  0  0  0  0  0  0  0  0  0
  -55.4370   19.7460  -17.7960 C   0  0  0  0  0  0  0  0  0  0  0  0
  -55.7880   20.9590  -18.3830 C   0  0  0  0  0  0  0  0  0  0  0  0
  -56.1390   22.0530  -17.5890 C   0  0  0  0  0  0  0  0  0  0  0  0
  -56.1600   21.9510  -16.1740 C   0  0  0  0  0  0  0  0  0  0  0  0
  1  2  1  0
  2  3  1  0
  2 16  1  0
  3  4  2  0
  3  9  1  0
  4  5  1  0
  5  6  2  0
  6  7  1  0
  7  8  2  0
  7  9  1  0
  9 10  2  0
 10 11  1  0
 11 12  2  0
 11 16  1  0
 12 13  1  0
 13 14  2  0
 14 15  1  0
 15 16  2  0
M  END
>  <Conformer_ID>  (22) 
22

$$$$
ligand_0
     RDKit          3D

 16 18  0  0  0  0  0  0  0  0999 V2000
  -41.1280   22.8750  -26.0110 C   0  0  0  0  0  0  0  0  0  0  0  0
  -41.2070   21.5320  -26.6230 N   0  0  0  0  0  0  0  0  0  0  0  0
  -40.7960   21.3360  -27.9260 C   0  0  0  0  0  0  0  0  0  0  0  0
  -40.4970   22.3880  -28.8180 C   0  0  0  0  0  0  0  0  0  0  0  0
  -40.0350   22.1160  -30.1100 C   0  0  0  0  0  0  0  0  0  0  0  0
  -39.8730   20.8030  -30.5580 C   0  0  0  0  0  0  0  0  0  0  0  0
  -40.1990   19.7210  -29.7370 C   0  0  0  0  0  0  0  0  0  0  0  0
  -40.0710   18.5450  -30.1720 O   0  0  0  0  0  0  0  0  0  0  0  0
  -40.6760   19.9500  -28.4420 C   0  0  0  0  0  0  0  0  0  0  0  0
  -41.0570   18.9220  -27.6540 N   0  0  0  0  0  0  0  0  0  0  0  0
  -41.5650   19.1330  -26.4170 C   0  0  0  0  0  0  0  0  0  0  0  0
  -41.9930   18.0300  -25.6680 C   0  0  0  0  0  0  0  0  0  0  0  0
  -42.5700   18.2120  -24.4120 C   0  0  0  0  0  0  0  0  0  0  0  0
  -42.7360   19.4970  -23.9020 C   0  0  0  0  0  0  0  0  0  0  0  0
  -42.3060   20.6080  -24.6310 C   0  0  0  0  0  0  0  0  0  0  0  0
  -41.6800   20.4520  -25.8950 C   0  0  0  0  0  0  0  0  0  0  0  0
  1  2  1  0
  2  3  1  0
  2 16  1  0
  3  4  2  0
  3  9  1  0
  4  5  1  0
  5  6  2  0
  6  7  1  0
  7  8  2  0
  7  9  1  0
  9 10  2  0
 10 11  1  0
 11 12  2  0
 11 16  1  0
 12 13  1  0
 13 14  2  0
 14 15  1  0
 15 16  2  0
M  END
>  <Conformer_ID>  (23) 
23

$$$$
ligand_0
     RDKit          3D

 16 18  0  0  0  0  0  0  0  0999 V2000
  -47.2310   21.6590  -19.6710 C   0  0  0  0  0  0  0  0  0  0  0  0
  -48.5740   21.4720  -20.2600 N   0  0  0  0  0  0  0  0  0  0  0  0
  -48.7260   21.3710  -21.6280 C   0  0  0  0  0  0  0  0  0  0  0  0
  -47.6970   21.6540  -22.5520 C   0  0  0  0  0  0  0  0  0  0  0  0
  -47.9050   21.4800  -23.9240 C   0  0  0  0  0  0  0  0  0  0  0  0
  -49.1360   21.0390  -24.4180 C   0  0  0  0  0  0  0  0  0  0  0  0
  -50.2060   20.7900  -23.5550 C   0  0  0  0  0  0  0  0  0  0  0  0
  -51.3150   20.4200  -24.0260 O   0  0  0  0  0  0  0  0  0  0  0  0
  -50.0430   20.9640  -22.1770 C   0  0  0  0  0  0  0  0  0  0  0  0
  -51.0800   20.7910  -21.3310 N   0  0  0  0  0  0  0  0  0  0  0  0
  -50.9490   21.0020  -20.0000 C   0  0  0  0  0  0  0  0  0  0  0  0
  -52.0740   20.8580  -19.1810 C   0  0  0  0  0  0  0  0  0  0  0  0
  -51.9890   21.1190  -17.8150 C   0  0  0  0  0  0  0  0  0  0  0  0
  -50.7820   21.5380  -17.2590 C   0  0  0  0  0  0  0  0  0  0  0  0
  -49.6470   21.6770  -18.0610 C   0  0  0  0  0  0  0  0  0  0  0  0
  -49.6930   21.3830  -19.4480 C   0  0  0  0  0  0  0  0  0  0  0  0
  1  2  1  0
  2  3  1  0
  2 16  1  0
  3  4  2  0
  3  9  1  0
  4  5  1  0
  5  6  2  0
  6  7  1  0
  7  8  2  0
  7  9  1  0
  9 10  2  0
 10 11  1  0
 11 12  2  0
 11 16  1  0
 12 13  1  0
 13 14  2  0
 14 15  1  0
 15 16  2  0
M  END
>  <Conformer_ID>  (24) 
24

$$$$
ligand_0
     RDKit          3D

 16 18  0  0  0  0  0  0  0  0999 V2000
  -64.2890    8.3320   -5.3840 C   0  0  0  0  0  0  0  0  0  0  0  0
  -64.7960    9.6550   -5.8090 N   0  0  0  0  0  0  0  0  0  0  0  0
  -65.8610   10.2350   -5.1520 C   0  0  0  0  0  0  0  0  0  0  0  0
  -66.6690    9.5530   -4.2160 C   0  0  0  0  0  0  0  0  0  0  0  0
  -67.7020   10.2190   -3.5490 C   0  0  0  0  0  0  0  0  0  0  0  0
  -67.9740   11.5670   -3.7990 C   0  0  0  0  0  0  0  0  0  0  0  0
  -67.2400   12.2800   -4.7500 C   0  0  0  0  0  0  0  0  0  0  0  0
  -67.5210   13.4870   -4.9790 O   0  0  0  0  0  0  0  0  0  0  0  0
  -66.2060   11.6470   -5.4490 C   0  0  0  0  0  0  0  0  0  0  0  0
  -65.5260   12.2990   -6.4160 N   0  0  0  0  0  0  0  0  0  0  0  0
  -64.5560   11.6840   -7.1330 C   0  0  0  0  0  0  0  0  0  0  0  0
  -63.9240   12.3950   -8.1590 C   0  0  0  0  0  0  0  0  0  0  0  0
  -62.9580   11.7780   -8.9520 C   0  0  0  0  0  0  0  0  0  0  0  0
  -62.6270   10.4430   -8.7340 C   0  0  0  0  0  0  0  0  0  0  0  0
  -63.2410    9.7210   -7.7080 C   0  0  0  0  0  0  0  0  0  0  0  0
  -64.2000   10.3320   -6.8600 C   0  0  0  0  0  0  0  0  0  0  0  0
  1  2  1  0
  2  3  1  0
  2 16  1  0
  3  4  2  0
  3  9  1  0
  4  5  1  0
  5  6  2  0
  6  7  1  0
  7  8  2  0
  7  9  1  0
  9 10  2  0
 10 11  1  0
 11 12  2  0
 11 16  1  0
 12 13  1  0
 13 14  2  0
 14 15  1  0
 15 16  2  0
M  END
>  <Conformer_ID>  (25) 
25

$$$$
ligand_0
     RDKit          3D

 16 18  0  0  0  0  0  0  0  0999 V2000
  -50.8460   20.9590  -23.3840 C   0  0  0  0  0  0  0  0  0  0  0  0
  -49.6090   20.9060  -22.5760 N   0  0  0  0  0  0  0  0  0  0  0  0
  -49.6620   20.5410  -21.2470 C   0  0  0  0  0  0  0  0  0  0  0  0
  -50.8640   20.4170  -20.5170 C   0  0  0  0  0  0  0  0  0  0  0  0
  -50.8470   19.9920  -19.1840 C   0  0  0  0  0  0  0  0  0  0  0  0
  -49.6460   19.6950  -18.5350 C   0  0  0  0  0  0  0  0  0  0  0  0
  -48.4220   19.8460  -19.1920 C   0  0  0  0  0  0  0  0  0  0  0  0
  -47.3490   19.5990  -18.5780 O   0  0  0  0  0  0  0  0  0  0  0  0
  -48.3940   20.2810  -20.5210 C   0  0  0  0  0  0  0  0  0  0  0  0
  -47.2210   20.4950  -21.1540 N   0  0  0  0  0  0  0  0  0  0  0  0
  -47.1800   20.9610  -22.4240 C   0  0  0  0  0  0  0  0  0  0  0  0
  -45.9330   21.2140  -23.0090 C   0  0  0  0  0  0  0  0  0  0  0  0
  -45.8520   21.7440  -24.2950 C   0  0  0  0  0  0  0  0  0  0  0  0
  -47.0160   22.0380  -25.0010 C   0  0  0  0  0  0  0  0  0  0  0  0
  -48.2690   21.7830  -24.4370 C   0  0  0  0  0  0  0  0  0  0  0  0
  -48.3830   21.2080  -23.1450 C   0  0  0  0  0  0  0  0  0  0  0  0
  1  2  1  0
  2  3  1  0
  2 16  1  0
  3  4  2  0
  3  9  1  0
  4  5  1  0
  5  6  2  0
  6  7  1  0
  7  8  2  0
  7  9  1  0
  9 10  2  0
 10 11  1  0
 11 12  2  0
 11 16  1  0
 12 13  1  0
 13 14  2  0
 14 15  1  0
 15 16  2  0
M  END
>  <Conformer_ID>  (26) 
26

$$$$
ligand_0
     RDKit          3D

 16 18  0  0  0  0  0  0  0  0999 V2000
  -46.8180   -6.2580  -38.4510 C   0  0  0  0  0  0  0  0  0  0  0  0
  -45.9280   -5.1010  -38.2090 N   0  0  0  0  0  0  0  0  0  0  0  0
  -45.9290   -4.0300  -39.0780 C   0  0  0  0  0  0  0  0  0  0  0  0
  -46.5730   -4.0420  -40.3350 C   0  0  0  0  0  0  0  0  0  0  0  0
  -46.5780   -2.9010  -41.1430 C   0  0  0  0  0  0  0  0  0  0  0  0
  -45.9340   -1.7280  -40.7420 C   0  0  0  0  0  0  0  0  0  0  0  0
  -45.2390   -1.6720  -39.5320 C   0  0  0  0  0  0  0  0  0  0  0  0
  -44.6410   -0.6120  -39.2030 O   0  0  0  0  0  0  0  0  0  0  0  0
  -45.1990   -2.7950  -38.6990 C   0  0  0  0  0  0  0  0  0  0  0  0
  -44.4810   -2.7840  -37.5560 N   0  0  0  0  0  0  0  0  0  0  0  0
  -44.3960   -3.8790  -36.7650 C   0  0  0  0  0  0  0  0  0  0  0  0
  -43.5920   -3.8230  -35.6200 C   0  0  0  0  0  0  0  0  0  0  0  0
  -43.4390   -4.9470  -34.8110 C   0  0  0  0  0  0  0  0  0  0  0  0
  -44.0760   -6.1390  -35.1470 C   0  0  0  0  0  0  0  0  0  0  0  0
  -44.8890   -6.2100  -36.2810 C   0  0  0  0  0  0  0  0  0  0  0  0
  -45.0960   -5.0730  -37.1020 C   0  0  0  0  0  0  0  0  0  0  0  0
  1  2  1  0
  2  3  1  0
  2 16  1  0
  3  4  2  0
  3  9  1  0
  4  5  1  0
  5  6  2  0
  6  7  1  0
  7  8  2  0
  7  9  1  0
  9 10  2  0
 10 11  1  0
 11 12  2  0
 11 16  1  0
 12 13  1  0
 13 14  2  0
 14 15  1  0
 15 16  2  0
M  END
>  <Conformer_ID>  (27) 
27

$$$$
ligand_0
     RDKit          3D

 16 18  0  0  0  0  0  0  0  0999 V2000
  -51.3580   -2.7190  -44.0430 C   0  0  0  0  0  0  0  0  0  0  0  0
  -52.2900   -1.6450  -44.4470 N   0  0  0  0  0  0  0  0  0  0  0  0
  -52.0530   -0.9130  -45.5930 C   0  0  0  0  0  0  0  0  0  0  0  0
  -50.8430   -0.9650  -46.3180 C   0  0  0  0  0  0  0  0  0  0  0  0
  -50.6900   -0.2350  -47.5010 C   0  0  0  0  0  0  0  0  0  0  0  0
  -51.7190    0.5750  -47.9890 C   0  0  0  0  0  0  0  0  0  0  0  0
  -52.9210    0.7040  -47.2890 C   0  0  0  0  0  0  0  0  0  0  0  0
  -53.8240    1.4620  -47.7330 O   0  0  0  0  0  0  0  0  0  0  0  0
  -53.1090    0.0010  -46.0940 C   0  0  0  0  0  0  0  0  0  0  0  0
  -54.2360    0.1590  -45.3690 N   0  0  0  0  0  0  0  0  0  0  0  0
  -54.4110   -0.4780  -44.1880 C   0  0  0  0  0  0  0  0  0  0  0  0
  -55.5780   -0.2320  -43.4550 C   0  0  0  0  0  0  0  0  0  0  0  0
  -55.7690   -0.8300  -42.2110 C   0  0  0  0  0  0  0  0  0  0  0  0
  -54.7880   -1.6670  -41.6830 C   0  0  0  0  0  0  0  0  0  0  0  0
  -53.6220   -1.9310  -42.4050 C   0  0  0  0  0  0  0  0  0  0  0  0
  -53.4170   -1.3690  -43.6910 C   0  0  0  0  0  0  0  0  0  0  0  0
  1  2  1  0
  2  3  1  0
  2 16  1  0
  3  4  2  0
  3  9  1  0
  4  5  1  0
  5  6  2  0
  6  7  1  0
  7  8  2  0
  7  9  1  0
  9 10  2  0
 10 11  1  0
 11 12  2  0
 11 16  1  0
 12 13  1  0
 13 14  2  0
 14 15  1  0
 15 16  2  0
M  END
>  <Conformer_ID>  (28) 
28

$$$$
ligand_0
     RDKit          3D

 16 18  0  0  0  0  0  0  0  0999 V2000
  -32.6420   13.9760  -26.4140 C   0  0  0  0  0  0  0  0  0  0  0  0
  -33.9930   14.2190  -26.9660 N   0  0  0  0  0  0  0  0  0  0  0  0
  -34.2550   13.9690  -28.2970 C   0  0  0  0  0  0  0  0  0  0  0  0
  -33.2530   13.6950  -29.2540 C   0  0  0  0  0  0  0  0  0  0  0  0
  -33.5950   13.4000  -30.5770 C   0  0  0  0  0  0  0  0  0  0  0  0
  -34.9290   13.3830  -30.9930 C   0  0  0  0  0  0  0  0  0  0  0  0
  -35.9600   13.6930  -30.1030 C   0  0  0  0  0  0  0  0  0  0  0  0
  -37.1540   13.6990  -30.5070 O   0  0  0  0  0  0  0  0  0  0  0  0
  -35.6600   14.0070  -28.7730 C   0  0  0  0  0  0  0  0  0  0  0  0
  -36.6330   14.3720  -27.9120 N   0  0  0  0  0  0  0  0  0  0  0  0
  -36.3510   14.7240  -26.6360 C   0  0  0  0  0  0  0  0  0  0  0  0
  -37.3970   15.1440  -25.8060 C   0  0  0  0  0  0  0  0  0  0  0  0
  -37.1380   15.5640  -24.5030 C   0  0  0  0  0  0  0  0  0  0  0  0
  -35.8300   15.5800  -24.0240 C   0  0  0  0  0  0  0  0  0  0  0  0
  -34.7750   15.1540  -24.8350 C   0  0  0  0  0  0  0  0  0  0  0  0
  -35.0120   14.6850  -26.1520 C   0  0  0  0  0  0  0  0  0  0  0  0
  1  2  1  0
  2  3  1  0
  2 16  1  0
  3  4  2  0
  3  9  1  0
  4  5  1  0
  5  6  2  0
  6  7  1  0
  7  8  2  0
  7  9  1  0
  9 10  2  0
 10 11  1  0
 11 12  2  0
 11 16  1  0
 12 13  1  0
 13 14  2  0
 14 15  1  0
 15 16  2  0
M  END
>  <Conformer_ID>  (29) 
29

$$$$
ligand_0
     RDKit          3D

 16 18  0  0  0  0  0  0  0  0999 V2000
  -47.1140   22.6470  -21.4610 C   0  0  0  0  0  0  0  0  0  0  0  0
  -48.4960   22.2250  -21.7730 N   0  0  0  0  0  0  0  0  0  0  0  0
  -48.8120   21.7560  -23.0320 C   0  0  0  0  0  0  0  0  0  0  0  0
  -47.9460   21.8490  -24.1430 C   0  0  0  0  0  0  0  0  0  0  0  0
  -48.3110   21.3040  -25.3780 C   0  0  0  0  0  0  0  0  0  0  0  0
  -49.5440   20.6710  -25.5520 C   0  0  0  0  0  0  0  0  0  0  0  0
  -50.4630   20.5910  -24.5030 C   0  0  0  0  0  0  0  0  0  0  0  0
  -51.5810   20.0400  -24.6910 O   0  0  0  0  0  0  0  0  0  0  0  0
  -50.1410   21.1340  -23.2540 C   0  0  0  0  0  0  0  0  0  0  0  0
  -51.0380   21.1250  -22.2450 N   0  0  0  0  0  0  0  0  0  0  0  0
  -50.7570   21.6900  -21.0470 C   0  0  0  0  0  0  0  0  0  0  0  0
  -51.7470   21.6970  -20.0570 C   0  0  0  0  0  0  0  0  0  0  0  0
  -51.5120   22.3140  -18.8310 C   0  0  0  0  0  0  0  0  0  0  0  0
  -50.2930   22.9420  -18.5890 C   0  0  0  0  0  0  0  0  0  0  0  0
  -49.2900   22.9370  -19.5620 C   0  0  0  0  0  0  0  0  0  0  0  0
  -49.4850   22.2830  -20.8050 C   0  0  0  0  0  0  0  0  0  0  0  0
  1  2  1  0
  2  3  1  0
  2 16  1  0
  3  4  2  0
  3  9  1  0
  4  5  1  0
  5  6  2  0
  6  7  1  0
  7  8  2  0
  7  9  1  0
  9 10  2  0
 10 11  1  0
 11 12  2  0
 11 16  1  0
 12 13  1  0
 13 14  2  0
 14 15  1  0
 15 16  2  0
M  END
>  <Conformer_ID>  (30) 
30

$$$$
ligand_0
     RDKit          3D

 16 18  0  0  0  0  0  0  0  0999 V2000
  -78.0710    8.0060  -38.7290 C   0  0  0  0  0  0  0  0  0  0  0  0
  -77.8300    9.2460  -39.4960 N   0  0  0  0  0  0  0  0  0  0  0  0
  -77.8540    9.2260  -40.8750 C   0  0  0  0  0  0  0  0  0  0  0  0
  -77.8780    8.0400  -41.6410 C   0  0  0  0  0  0  0  0  0  0  0  0
  -77.9540    8.0950  -43.0360 C   0  0  0  0  0  0  0  0  0  0  0  0
  -77.9910    9.3180  -43.7110 C   0  0  0  0  0  0  0  0  0  0  0  0
  -77.9210   10.5240  -43.0100 C   0  0  0  0  0  0  0  0  0  0  0  0
  -77.9280   11.6150  -43.6410 O   0  0  0  0  0  0  0  0  0  0  0  0
  -77.8320   10.5130  -41.6140 C   0  0  0  0  0  0  0  0  0  0  0  0
  -77.6990   11.6640  -40.9200 N   0  0  0  0  0  0  0  0  0  0  0  0
  -77.5640   11.6650  -39.5740 C   0  0  0  0  0  0  0  0  0  0  0  0
  -77.3760   12.8860  -38.9160 C   0  0  0  0  0  0  0  0  0  0  0  0
  -77.1800   12.9210  -37.5370 C   0  0  0  0  0  0  0  0  0  0  0  0
  -77.1570   11.7360  -36.8060 C   0  0  0  0  0  0  0  0  0  0  0  0
  -77.3530   10.5090  -37.4450 C   0  0  0  0  0  0  0  0  0  0  0  0
  -77.5930   10.4440  -38.8420 C   0  0  0  0  0  0  0  0  0  0  0  0
  1  2  1  0
  2  3  1  0
  2 16  1  0
  3  4  2  0
  3  9  1  0
  4  5  1  0
  5  6  2  0
  6  7  1  0
  7  8  2  0
  7  9  1  0
  9 10  2  0
 10 11  1  0
 11 12  2  0
 11 16  1  0
 12 13  1  0
 13 14  2  0
 14 15  1  0
 15 16  2  0
M  END
>  <Conformer_ID>  (31) 
31

$$$$
ligand_0
     RDKit          3D

 16 18  0  0  0  0  0  0  0  0999 V2000
  -34.7640    4.0100  -40.0390 C   0  0  0  0  0  0  0  0  0  0  0  0
  -36.2300    3.9740  -40.2280 N   0  0  0  0  0  0  0  0  0  0  0  0
  -36.9890    3.0130  -39.5930 C   0  0  0  0  0  0  0  0  0  0  0  0
  -36.4400    1.8950  -38.9260 C   0  0  0  0  0  0  0  0  0  0  0  0
  -37.2670    0.9870  -38.2580 C   0  0  0  0  0  0  0  0  0  0  0  0
  -38.6550    1.1490  -38.2450 C   0  0  0  0  0  0  0  0  0  0  0  0
  -39.2590    2.2070  -38.9270 C   0  0  0  0  0  0  0  0  0  0  0  0
  -40.5150    2.3170  -38.9250 O   0  0  0  0  0  0  0  0  0  0  0  0
  -38.4680    3.1310  -39.6180 C   0  0  0  0  0  0  0  0  0  0  0  0
  -39.0330    4.1250  -40.3370 N   0  0  0  0  0  0  0  0  0  0  0  0
  -38.2810    4.9960  -41.0490 C   0  0  0  0  0  0  0  0  0  0  0  0
  -38.9260    5.9720  -41.8170 C   0  0  0  0  0  0  0  0  0  0  0  0
  -38.1870    6.8530  -42.6040 C   0  0  0  0  0  0  0  0  0  0  0  0
  -36.7980    6.7570  -42.6390 C   0  0  0  0  0  0  0  0  0  0  0  0
  -36.1370    5.7950  -41.8710 C   0  0  0  0  0  0  0  0  0  0  0  0
  -36.8600    4.9100  -41.0310 C   0  0  0  0  0  0  0  0  0  0  0  0
  1  2  1  0
  2  3  1  0
  2 16  1  0
  3  4  2  0
  3  9  1  0
  4  5  1  0
  5  6  2  0
  6  7  1  0
  7  8  2  0
  7  9  1  0
  9 10  2  0
 10 11  1  0
 11 12  2  0
 11 16  1  0
 12 13  1  0
 13 14  2  0
 14 15  1  0
 15 16  2  0
M  END
>  <Conformer_ID>  (32) 
32

$$$$
ligand_0
     RDKit          3D

 16 18  0  0  0  0  0  0  0  0999 V2000
  -35.3440    3.8720  -39.9730 C   0  0  0  0  0  0  0  0  0  0  0  0
  -36.7100    3.7520  -39.4190 N   0  0  0  0  0  0  0  0  0  0  0  0
  -37.6490    2.9610  -40.0470 C   0  0  0  0  0  0  0  0  0  0  0  0
  -37.4710    2.4070  -41.3340 C   0  0  0  0  0  0  0  0  0  0  0  0
  -38.4430    1.5700  -41.8900 C   0  0  0  0  0  0  0  0  0  0  0  0
  -39.6210    1.2720  -41.1990 C   0  0  0  0  0  0  0  0  0  0  0  0
  -39.8740    1.8290  -39.9430 C   0  0  0  0  0  0  0  0  0  0  0  0
  -40.9560    1.5680  -39.3510 O   0  0  0  0  0  0  0  0  0  0  0  0
  -38.9320    2.6810  -39.3570 C   0  0  0  0  0  0  0  0  0  0  0  0
  -39.1840    3.2810  -38.1740 N   0  0  0  0  0  0  0  0  0  0  0  0
  -38.3020    4.1450  -37.6190 C   0  0  0  0  0  0  0  0  0  0  0  0
  -38.6430    4.7760  -36.4170 C   0  0  0  0  0  0  0  0  0  0  0  0
  -37.7840    5.7110  -35.8440 C   0  0  0  0  0  0  0  0  0  0  0  0
  -36.5840    6.0320  -36.4740 C   0  0  0  0  0  0  0  0  0  0  0  0
  -36.2230    5.4040  -37.6690 C   0  0  0  0  0  0  0  0  0  0  0  0
  -37.0590    4.4210  -38.2560 C   0  0  0  0  0  0  0  0  0  0  0  0
  1  2  1  0
  2  3  1  0
  2 16  1  0
  3  4  2  0
  3  9  1  0
  4  5  1  0
  5  6  2  0
  6  7  1  0
  7  8  2  0
  7  9  1  0
  9 10  2  0
 10 11  1  0
 11 12  2  0
 11 16  1  0
 12 13  1  0
 13 14  2  0
 14 15  1  0
 15 16  2  0
M  END
>  <Conformer_ID>  (33) 
33

$$$$
ligand_0
     RDKit          3D

 16 18  0  0  0  0  0  0  0  0999 V2000
  -38.1130    0.8660  -40.3180 C   0  0  0  0  0  0  0  0  0  0  0  0
  -38.3030    2.2400  -39.8070 N   0  0  0  0  0  0  0  0  0  0  0  0
  -38.5110    2.4600  -38.4610 C   0  0  0  0  0  0  0  0  0  0  0  0
  -38.7790    1.4300  -37.5320 C   0  0  0  0  0  0  0  0  0  0  0  0
  -38.9280    1.7190  -36.1730 C   0  0  0  0  0  0  0  0  0  0  0  0
  -38.8330    3.0300  -35.6970 C   0  0  0  0  0  0  0  0  0  0  0  0
  -38.6180    4.0950  -36.5750 C   0  0  0  0  0  0  0  0  0  0  0  0
  -38.5630    5.2720  -36.1270 O   0  0  0  0  0  0  0  0  0  0  0  0
  -38.4750    3.8500  -37.9450 C   0  0  0  0  0  0  0  0  0  0  0  0
  -38.3300    4.8700  -38.8180 N   0  0  0  0  0  0  0  0  0  0  0  0
  -38.2390    4.6490  -40.1510 C   0  0  0  0  0  0  0  0  0  0  0  0
  -38.1430    5.7500  -41.0100 C   0  0  0  0  0  0  0  0  0  0  0  0
  -38.1010    5.5650  -42.3900 C   0  0  0  0  0  0  0  0  0  0  0  0
  -38.1670    4.2800  -42.9230 C   0  0  0  0  0  0  0  0  0  0  0  0
  -38.2530    3.1690  -42.0790 C   0  0  0  0  0  0  0  0  0  0  0  0
  -38.2590    3.3240  -40.6690 C   0  0  0  0  0  0  0  0  0  0  0  0
  1  2  1  0
  2  3  1  0
  2 16  1  0
  3  4  2  0
  3  9  1  0
  4  5  1  0
  5  6  2  0
  6  7  1  0
  7  8  2  0
  7  9  1  0
  9 10  2  0
 10 11  1  0
 11 12  2  0
 11 16  1  0
 12 13  1  0
 13 14  2  0
 14 15  1  0
 15 16  2  0
M  END
>  <Conformer_ID>  (34) 
34

$$$$
ligand_0
     RDKit          3D

 16 18  0  0  0  0  0  0  0  0999 V2000
  -34.8600    3.5420  -40.1880 C   0  0  0  0  0  0  0  0  0  0  0  0
  -36.2440    4.0590  -40.2410 N   0  0  0  0  0  0  0  0  0  0  0  0
  -36.5640    5.1050  -41.0820 C   0  0  0  0  0  0  0  0  0  0  0  0
  -35.6030    5.8860  -41.7600 C   0  0  0  0  0  0  0  0  0  0  0  0
  -36.0000    6.8990  -42.6390 C   0  0  0  0  0  0  0  0  0  0  0  0
  -37.3520    7.1760  -42.8580 C   0  0  0  0  0  0  0  0  0  0  0  0
  -38.3470    6.4690  -42.1790 C   0  0  0  0  0  0  0  0  0  0  0  0
  -39.5590    6.7550  -42.3720 O   0  0  0  0  0  0  0  0  0  0  0  0
  -37.9920    5.4560  -41.2820 C   0  0  0  0  0  0  0  0  0  0  0  0
  -38.9330    4.8030  -40.5680 N   0  0  0  0  0  0  0  0  0  0  0  0
  -38.6000    3.8550  -39.6620 C   0  0  0  0  0  0  0  0  0  0  0  0
  -39.6170    3.2510  -38.9130 C   0  0  0  0  0  0  0  0  0  0  0  0
  -39.3080    2.3090  -37.9350 C   0  0  0  0  0  0  0  0  0  0  0  0
  -37.9790    1.9730  -37.6870 C   0  0  0  0  0  0  0  0  0  0  0  0
  -36.9520    2.5590  -38.4310 C   0  0  0  0  0  0  0  0  0  0  0  0
  -37.2380    3.4920  -39.4600 C   0  0  0  0  0  0  0  0  0  0  0  0
  1  2  1  0
  2  3  1  0
  2 16  1  0
  3  4  2  0
  3  9  1  0
  4  5  1  0
  5  6  2  0
  6  7  1  0
  7  8  2  0
  7  9  1  0
  9 10  2  0
 10 11  1  0
 11 12  2  0
 11 16  1  0
 12 13  1  0
 13 14  2  0
 14 15  1  0
 15 16  2  0
M  END
>  <Conformer_ID>  (35) 
35

$$$$
ligand_0
     RDKit          3D

 16 18  0  0  0  0  0  0  0  0999 V2000
  -31.8910   12.6590  -27.2280 C   0  0  0  0  0  0  0  0  0  0  0  0
  -33.0680   12.2400  -28.0190 N   0  0  0  0  0  0  0  0  0  0  0  0
  -34.1160   13.1140  -28.2210 C   0  0  0  0  0  0  0  0  0  0  0  0
  -34.2570   14.3390  -27.5330 C   0  0  0  0  0  0  0  0  0  0  0  0
  -35.3190   15.2010  -27.8250 C   0  0  0  0  0  0  0  0  0  0  0  0
  -36.2750   14.8700  -28.7890 C   0  0  0  0  0  0  0  0  0  0  0  0
  -36.2140   13.6500  -29.4670 C   0  0  0  0  0  0  0  0  0  0  0  0
  -37.1030   13.3600  -30.3130 O   0  0  0  0  0  0  0  0  0  0  0  0
  -35.1750   12.7540  -29.1950 C   0  0  0  0  0  0  0  0  0  0  0  0
  -35.1330   11.5430  -29.7920 N   0  0  0  0  0  0  0  0  0  0  0  0
  -34.1590   10.6480  -29.5020 C   0  0  0  0  0  0  0  0  0  0  0  0
  -34.1990    9.3890  -30.1130 C   0  0  0  0  0  0  0  0  0  0  0  0
  -33.2450    8.4240  -29.8000 C   0  0  0  0  0  0  0  0  0  0  0  0
  -32.2520    8.7040  -28.8630 C   0  0  0  0  0  0  0  0  0  0  0  0
  -32.1920    9.9590  -28.2520 C   0  0  0  0  0  0  0  0  0  0  0  0
  -33.1260   10.9740  -28.5790 C   0  0  0  0  0  0  0  0  0  0  0  0
  1  2  1  0
  2  3  1  0
  2 16  1  0
  3  4  2  0
  3  9  1  0
  4  5  1  0
  5  6  2  0
  6  7  1  0
  7  8  2  0
  7  9  1  0
  9 10  2  0
 10 11  1  0
 11 12  2  0
 11 16  1  0
 12 13  1  0
 13 14  2  0
 14 15  1  0
 15 16  2  0
M  END
>  <Conformer_ID>  (36) 
36

$$$$
ligand_0
     RDKit          3D

 16 18  0  0  0  0  0  0  0  0999 V2000
  -51.4950   20.7100  -19.3320 C   0  0  0  0  0  0  0  0  0  0  0  0
  -50.1120   20.4710  -19.7970 N   0  0  0  0  0  0  0  0  0  0  0  0
  -49.7820   20.6600  -21.1230 C   0  0  0  0  0  0  0  0  0  0  0  0
  -50.7340   20.8630  -22.1450 C   0  0  0  0  0  0  0  0  0  0  0  0
  -50.3260   21.1000  -23.4610 C   0  0  0  0  0  0  0  0  0  0  0  0
  -48.9720   21.1260  -23.8050 C   0  0  0  0  0  0  0  0  0  0  0  0
  -47.9860   20.8840  -22.8460 C   0  0  0  0  0  0  0  0  0  0  0  0
  -46.7710   20.8850  -23.1840 O   0  0  0  0  0  0  0  0  0  0  0  0
  -48.3520   20.6300  -21.5200 C   0  0  0  0  0  0  0  0  0  0  0  0
  -47.4200   20.3310  -20.5900 N   0  0  0  0  0  0  0  0  0  0  0  0
  -47.7650   20.0370  -19.3140 C   0  0  0  0  0  0  0  0  0  0  0  0
  -46.7580   19.6820  -18.4090 C   0  0  0  0  0  0  0  0  0  0  0  0
  -47.0810   19.3210  -17.1020 C   0  0  0  0  0  0  0  0  0  0  0  0
  -48.4120   19.2990  -16.6940 C   0  0  0  0  0  0  0  0  0  0  0  0
  -49.4290   19.6600  -17.5820 C   0  0  0  0  0  0  0  0  0  0  0  0
  -49.1290   20.0690  -18.9070 C   0  0  0  0  0  0  0  0  0  0  0  0
  1  2  1  0
  2  3  1  0
  2 16  1  0
  3  4  2  0
  3  9  1  0
  4  5  1  0
  5  6  2  0
  6  7  1  0
  7  8  2  0
  7  9  1  0
  9 10  2  0
 10 11  1  0
 11 12  2  0
 11 16  1  0
 12 13  1  0
 13 14  2  0
 14 15  1  0
 15 16  2  0
M  END
>  <Conformer_ID>  (37) 
37

$$$$
ligand_0
     RDKit          3D

 16 18  0  0  0  0  0  0  0  0999 V2000
  -74.9510   22.5990  -27.6960 C   0  0  0  0  0  0  0  0  0  0  0  0
  -74.0070   21.6560  -28.3330 N   0  0  0  0  0  0  0  0  0  0  0  0
  -72.6580   21.7280  -28.0540 C   0  0  0  0  0  0  0  0  0  0  0  0
  -72.0600   22.7970  -27.3530 C   0  0  0  0  0  0  0  0  0  0  0  0
  -70.6930   22.7790  -27.0590 C   0  0  0  0  0  0  0  0  0  0  0  0
  -69.8800   21.7170  -27.4620 C   0  0  0  0  0  0  0  0  0  0  0  0
  -70.4070   20.6540  -28.2010 C   0  0  0  0  0  0  0  0  0  0  0  0
  -69.6490   19.7200  -28.5780 O   0  0  0  0  0  0  0  0  0  0  0  0
  -71.7670   20.6400  -28.5270 C   0  0  0  0  0  0  0  0  0  0  0  0
  -72.2840   19.6560  -29.2930 N   0  0  0  0  0  0  0  0  0  0  0  0
  -73.5880   19.6550  -29.6550 C   0  0  0  0  0  0  0  0  0  0  0  0
  -74.0540   18.6370  -30.4950 C   0  0  0  0  0  0  0  0  0  0  0  0
  -75.3770   18.6320  -30.9310 C   0  0  0  0  0  0  0  0  0  0  0  0
  -76.2420   19.6530  -30.5430 C   0  0  0  0  0  0  0  0  0  0  0  0
  -75.7960   20.6720  -29.6960 C   0  0  0  0  0  0  0  0  0  0  0  0
  -74.4660   20.6820  -29.2050 C   0  0  0  0  0  0  0  0  0  0  0  0
  1  2  1  0
  2  3  1  0
  2 16  1  0
  3  4  2  0
  3  9  1  0
  4  5  1  0
  5  6  2  0
  6  7  1  0
  7  8  2  0
  7  9  1  0
  9 10  2  0
 10 11  1  0
 11 12  2  0
 11 16  1  0
 12 13  1  0
 13 14  2  0
 14 15  1  0
 15 16  2  0
M  END
>  <Conformer_ID>  (38) 
38

$$$$
ligand_0
     RDKit          3D

 16 18  0  0  0  0  0  0  0  0999 V2000
  -61.8340   10.0790   -7.4070 C   0  0  0  0  0  0  0  0  0  0  0  0
  -62.4570   11.3580   -7.0040 N   0  0  0  0  0  0  0  0  0  0  0  0
  -63.7920   11.4020   -6.6600 C   0  0  0  0  0  0  0  0  0  0  0  0
  -64.6910   10.3350   -6.8730 C   0  0  0  0  0  0  0  0  0  0  0  0
  -66.0210   10.4300   -6.4510 C   0  0  0  0  0  0  0  0  0  0  0  0
  -66.5010   11.5830   -5.8250 C   0  0  0  0  0  0  0  0  0  0  0  0
  -65.6710   12.6900   -5.6310 C   0  0  0  0  0  0  0  0  0  0  0  0
  -66.1320   13.7300   -5.0900 O   0  0  0  0  0  0  0  0  0  0  0  0
  -64.3370   12.6410   -6.0500 C   0  0  0  0  0  0  0  0  0  0  0  0
  -63.5340   13.7200   -5.9310 N   0  0  0  0  0  0  0  0  0  0  0  0
  -62.2560   13.7010   -6.3750 C   0  0  0  0  0  0  0  0  0  0  0  0
  -61.4900   14.8680   -6.2730 C   0  0  0  0  0  0  0  0  0  0  0  0
  -60.1880   14.9020   -6.7670 C   0  0  0  0  0  0  0  0  0  0  0  0
  -59.6460   13.7750   -7.3800 C   0  0  0  0  0  0  0  0  0  0  0  0
  -60.3930   12.5990   -7.4830 C   0  0  0  0  0  0  0  0  0  0  0  0
  -61.7070   12.5220   -6.9540 C   0  0  0  0  0  0  0  0  0  0  0  0
  1  2  1  0
  2  3  1  0
  2 16  1  0
  3  4  2  0
  3  9  1  0
  4  5  1  0
  5  6  2  0
  6  7  1  0
  7  8  2  0
  7  9  1  0
  9 10  2  0
 10 11  1  0
 11 12  2  0
 11 16  1  0
 12 13  1  0
 13 14  2  0
 14 15  1  0
 15 16  2  0
M  END
>  <Conformer_ID>  (39) 
39

$$$$
ligand_0
     RDKit          3D

 16 18  0  0  0  0  0  0  0  0999 V2000
  -45.5610   20.1770  -20.1910 C   0  0  0  0  0  0  0  0  0  0  0  0
  -46.8500   19.9030  -19.5200 N   0  0  0  0  0  0  0  0  0  0  0  0
  -48.0400   20.1740  -20.1640 C   0  0  0  0  0  0  0  0  0  0  0  0
  -48.1300   20.9130  -21.3640 C   0  0  0  0  0  0  0  0  0  0  0  0
  -49.3660   21.1060  -21.9890 C   0  0  0  0  0  0  0  0  0  0  0  0
  -50.5430   20.5900  -21.4400 C   0  0  0  0  0  0  0  0  0  0  0  0
  -50.5220   19.8930  -20.2300 C   0  0  0  0  0  0  0  0  0  0  0  0
  -51.5990   19.4610  -19.7390 O   0  0  0  0  0  0  0  0  0  0  0  0
  -49.3080   19.6890  -19.5650 C   0  0  0  0  0  0  0  0  0  0  0  0
  -49.2720   19.0740  -18.3640 N   0  0  0  0  0  0  0  0  0  0  0  0
  -48.1100   18.9130  -17.6880 C   0  0  0  0  0  0  0  0  0  0  0  0
  -48.1440   18.3160  -16.4230 C   0  0  0  0  0  0  0  0  0  0  0  0
  -46.9760   18.1810  -15.6750 C   0  0  0  0  0  0  0  0  0  0  0  0
  -45.7680   18.6540  -16.1810 C   0  0  0  0  0  0  0  0  0  0  0  0
  -45.7140   19.2440  -17.4460 C   0  0  0  0  0  0  0  0  0  0  0  0
  -46.8790   19.3600  -18.2460 C   0  0  0  0  0  0  0  0  0  0  0  0
  1  2  1  0
  2  3  1  0
  2 16  1  0
  3  4  2  0
  3  9  1  0
  4  5  1  0
  5  6  2  0
  6  7  1  0
  7  8  2  0
  7  9  1  0
  9 10  2  0
 10 11  1  0
 11 12  2  0
 11 16  1  0
 12 13  1  0
 13 14  2  0
 14 15  1  0
 15 16  2  0
M  END
>  <Conformer_ID>  (40) 
40

$$$$
ligand_0
     RDKit          3D

 16 18  0  0  0  0  0  0  0  0999 V2000
  -46.0580   22.7940  -21.5120 C   0  0  0  0  0  0  0  0  0  0  0  0
  -46.9820   22.2490  -22.5290 N   0  0  0  0  0  0  0  0  0  0  0  0
  -48.1590   21.6410  -22.1450 C   0  0  0  0  0  0  0  0  0  0  0  0
  -48.4620   21.2960  -20.8090 C   0  0  0  0  0  0  0  0  0  0  0  0
  -49.6980   20.7290  -20.4840 C   0  0  0  0  0  0  0  0  0  0  0  0
  -50.6580   20.4730  -21.4670 C   0  0  0  0  0  0  0  0  0  0  0  0
  -50.3960   20.7480  -22.8110 C   0  0  0  0  0  0  0  0  0  0  0  0
  -51.2650   20.4820  -23.6840 O   0  0  0  0  0  0  0  0  0  0  0  0
  -49.1670   21.3040  -23.1810 C   0  0  0  0  0  0  0  0  0  0  0  0
  -48.8680   21.5190  -24.4800 N   0  0  0  0  0  0  0  0  0  0  0  0
  -47.6640   22.0120  -24.8540 C   0  0  0  0  0  0  0  0  0  0  0  0
  -47.3930   22.1630  -26.2190 C   0  0  0  0  0  0  0  0  0  0  0  0
  -46.1470   22.6180  -26.6440 C   0  0  0  0  0  0  0  0  0  0  0  0
  -45.1570   22.9130  -25.7090 C   0  0  0  0  0  0  0  0  0  0  0  0
  -45.4140   22.7770  -24.3430 C   0  0  0  0  0  0  0  0  0  0  0  0
  -46.6850   22.3540  -23.8780 C   0  0  0  0  0  0  0  0  0  0  0  0
  1  2  1  0
  2  3  1  0
  2 16  1  0
  3  4  2  0
  3  9  1  0
  4  5  1  0
  5  6  2  0
  6  7  1  0
  7  8  2  0
  7  9  1  0
  9 10  2  0
 10 11  1  0
 11 12  2  0
 11 16  1  0
 12 13  1  0
 13 14  2  0
 14 15  1  0
 15 16  2  0
M  END
>  <Conformer_ID>  (41) 
41

$$$$
ligand_0
     RDKit          3D

 16 18  0  0  0  0  0  0  0  0999 V2000
  -50.8780   21.2430  -23.0730 C   0  0  0  0  0  0  0  0  0  0  0  0
  -49.5510   20.9840  -22.4750 N   0  0  0  0  0  0  0  0  0  0  0  0
  -48.4020   21.2610  -23.1860 C   0  0  0  0  0  0  0  0  0  0  0  0
  -48.3900   21.5810  -24.5610 C   0  0  0  0  0  0  0  0  0  0  0  0
  -47.1920   21.9020  -25.2060 C   0  0  0  0  0  0  0  0  0  0  0  0
  -45.9760   21.9000  -24.5180 C   0  0  0  0  0  0  0  0  0  0  0  0
  -45.9190   21.5440  -23.1680 C   0  0  0  0  0  0  0  0  0  0  0  0
  -44.8070   21.5210  -22.5750 O   0  0  0  0  0  0  0  0  0  0  0  0
  -47.0930   21.2040  -22.4880 C   0  0  0  0  0  0  0  0  0  0  0  0
  -47.0540   20.7950  -21.2020 N   0  0  0  0  0  0  0  0  0  0  0  0
  -48.1760   20.4180  -20.5470 C   0  0  0  0  0  0  0  0  0  0  0  0
  -48.0650   19.9530  -19.2310 C   0  0  0  0  0  0  0  0  0  0  0  0
  -49.1910   19.5060  -18.5440 C   0  0  0  0  0  0  0  0  0  0  0  0
  -50.4350   19.5080  -19.1700 C   0  0  0  0  0  0  0  0  0  0  0  0
  -50.5670   19.9770  -20.4790 C   0  0  0  0  0  0  0  0  0  0  0  0
  -49.4450   20.4740  -21.1910 C   0  0  0  0  0  0  0  0  0  0  0  0
  1  2  1  0
  2  3  1  0
  2 16  1  0
  3  4  2  0
  3  9  1  0
  4  5  1  0
  5  6  2  0
  6  7  1  0
  7  8  2  0
  7  9  1  0
  9 10  2  0
 10 11  1  0
 11 12  2  0
 11 16  1  0
 12 13  1  0
 13 14  2  0
 14 15  1  0
 15 16  2  0
M  END
>  <Conformer_ID>  (42) 
42

$$$$
ligand_0
     RDKit          3D

 16 18  0  0  0  0  0  0  0  0999 V2000
  -55.4440   -5.2480  -44.1160 C   0  0  0  0  0  0  0  0  0  0  0  0
  -54.6160   -4.0640  -43.8010 N   0  0  0  0  0  0  0  0  0  0  0  0
  -53.2430   -4.1780  -43.7220 C   0  0  0  0  0  0  0  0  0  0  0  0
  -52.5590   -5.4130  -43.7070 C   0  0  0  0  0  0  0  0  0  0  0  0
  -51.1610   -5.4520  -43.6790 C   0  0  0  0  0  0  0  0  0  0  0  0
  -50.4060   -4.2770  -43.6470 C   0  0  0  0  0  0  0  0  0  0  0  0
  -51.0280   -3.0270  -43.6110 C   0  0  0  0  0  0  0  0  0  0  0  0
  -50.3260   -1.9810  -43.5550 O   0  0  0  0  0  0  0  0  0  0  0  0
  -52.4240   -2.9440  -43.6260 C   0  0  0  0  0  0  0  0  0  0  0  0
  -53.0470   -1.7500  -43.5280 N   0  0  0  0  0  0  0  0  0  0  0  0
  -54.3970   -1.6590  -43.4930 C   0  0  0  0  0  0  0  0  0  0  0  0
  -54.9830   -0.3980  -43.3350 C   0  0  0  0  0  0  0  0  0  0  0  0
  -56.3680   -0.2720  -43.2420 C   0  0  0  0  0  0  0  0  0  0  0  0
  -57.1760   -1.4050  -43.2910 C   0  0  0  0  0  0  0  0  0  0  0  0
  -56.6080   -2.6710  -43.4580 C   0  0  0  0  0  0  0  0  0  0  0  0
  -55.2050   -2.8280  -43.5940 C   0  0  0  0  0  0  0  0  0  0  0  0
  1  2  1  0
  2  3  1  0
  2 16  1  0
  3  4  2  0
  3  9  1  0
  4  5  1  0
  5  6  2  0
  6  7  1  0
  7  8  2  0
  7  9  1  0
  9 10  2  0
 10 11  1  0
 11 12  2  0
 11 16  1  0
 12 13  1  0
 13 14  2  0
 14 15  1  0
 15 16  2  0
M  END
>  <Conformer_ID>  (43) 
43

$$$$
ligand_0
     RDKit          3D

 16 18  0  0  0  0  0  0  0  0999 V2000
  -43.8350   -1.0350   -5.8330 C   0  0  0  0  0  0  0  0  0  0  0  0
  -42.5800   -0.7970   -6.5780 N   0  0  0  0  0  0  0  0  0  0  0  0
  -41.3770   -1.2460   -6.0740 C   0  0  0  0  0  0  0  0  0  0  0  0
  -41.2140   -1.7420   -4.7620 C   0  0  0  0  0  0  0  0  0  0  0  0
  -39.9750   -2.2300   -4.3350 C   0  0  0  0  0  0  0  0  0  0  0  0
  -38.8640   -2.2250   -5.1830 C   0  0  0  0  0  0  0  0  0  0  0  0
  -38.9530   -1.7030   -6.4750 C   0  0  0  0  0  0  0  0  0  0  0  0
  -37.9310   -1.6830   -7.2130 O   0  0  0  0  0  0  0  0  0  0  0  0
  -40.1710   -1.1930   -6.9370 C   0  0  0  0  0  0  0  0  0  0  0  0
  -40.2640   -0.6250   -8.1590 N   0  0  0  0  0  0  0  0  0  0  0  0
  -41.4250   -0.0860   -8.6000 C   0  0  0  0  0  0  0  0  0  0  0  0
  -41.4450    0.5360   -9.8530 C   0  0  0  0  0  0  0  0  0  0  0  0
  -42.6070    1.1480  -10.3180 C   0  0  0  0  0  0  0  0  0  0  0  0
  -43.7540    1.1550   -9.5270 C   0  0  0  0  0  0  0  0  0  0  0  0
  -43.7540    0.5310   -8.2770 C   0  0  0  0  0  0  0  0  0  0  0  0
  -42.5980   -0.1340   -7.7950 C   0  0  0  0  0  0  0  0  0  0  0  0
  1  2  1  0
  2  3  1  0
  2 16  1  0
  3  4  2  0
  3  9  1  0
  4  5  1  0
  5  6  2  0
  6  7  1  0
  7  8  2  0
  7  9  1  0
  9 10  2  0
 10 11  1  0
 11 12  2  0
 11 16  1  0
 12 13  1  0
 13 14  2  0
 14 15  1  0
 15 16  2  0
M  END
>  <Conformer_ID>  (44) 
44

$$$$
ligand_0
     RDKit          3D

 16 18  0  0  0  0  0  0  0  0999 V2000
  -77.6590    7.2000  -39.0920 C   0  0  0  0  0  0  0  0  0  0  0  0
  -77.5050    8.5600  -38.5330 N   0  0  0  0  0  0  0  0  0  0  0  0
  -77.3550    9.6440  -39.3730 C   0  0  0  0  0  0  0  0  0  0  0  0
  -77.1140    9.5320  -40.7600 C   0  0  0  0  0  0  0  0  0  0  0  0
  -77.0230   10.6740  -41.5610 C   0  0  0  0  0  0  0  0  0  0  0  0
  -77.1520   11.9530  -41.0140 C   0  0  0  0  0  0  0  0  0  0  0  0
  -77.3430   12.1280  -39.6410 C   0  0  0  0  0  0  0  0  0  0  0  0
  -77.4280   13.2930  -39.1650 O   0  0  0  0  0  0  0  0  0  0  0  0
  -77.4270   11.0120  -38.8020 C   0  0  0  0  0  0  0  0  0  0  0  0
  -77.5470   11.1580  -37.4650 N   0  0  0  0  0  0  0  0  0  0  0  0
  -77.5810   10.0870  -36.6390 C   0  0  0  0  0  0  0  0  0  0  0  0
  -77.6530   10.3050  -35.2580 C   0  0  0  0  0  0  0  0  0  0  0  0
  -77.6370    9.2280  -34.3730 C   0  0  0  0  0  0  0  0  0  0  0  0
  -77.5340    7.9280  -34.8610 C   0  0  0  0  0  0  0  0  0  0  0  0
  -77.4710    7.6920  -36.2370 C   0  0  0  0  0  0  0  0  0  0  0  0
  -77.5250    8.7650  -37.1630 C   0  0  0  0  0  0  0  0  0  0  0  0
  1  2  1  0
  2  3  1  0
  2 16  1  0
  3  4  2  0
  3  9  1  0
  4  5  1  0
  5  6  2  0
  6  7  1  0
  7  8  2  0
  7  9  1  0
  9 10  2  0
 10 11  1  0
 11 12  2  0
 11 16  1  0
 12 13  1  0
 13 14  2  0
 14 15  1  0
 15 16  2  0
M  END
>  <Conformer_ID>  (45) 
45

$$$$
ligand_0
     RDKit          3D

 16 18  0  0  0  0  0  0  0  0999 V2000
  -51.5330   19.9850  -19.1440 C   0  0  0  0  0  0  0  0  0  0  0  0
  -50.1170   20.1700  -19.5280 N   0  0  0  0  0  0  0  0  0  0  0  0
  -49.1120   19.9390  -18.6120 C   0  0  0  0  0  0  0  0  0  0  0  0
  -49.3400   19.7390  -17.2330 C   0  0  0  0  0  0  0  0  0  0  0  0
  -48.2780   19.4570  -16.3690 C   0  0  0  0  0  0  0  0  0  0  0  0
  -46.9640   19.3810  -16.8400 C   0  0  0  0  0  0  0  0  0  0  0  0
  -46.6710   19.6170  -18.1850 C   0  0  0  0  0  0  0  0  0  0  0  0
  -45.4750   19.5710  -18.5810 O   0  0  0  0  0  0  0  0  0  0  0  0
  -47.7040   19.9150  -19.0800 C   0  0  0  0  0  0  0  0  0  0  0  0
  -47.4370   20.2090  -20.3700 N   0  0  0  0  0  0  0  0  0  0  0  0
  -48.4220   20.5460  -21.2350 C   0  0  0  0  0  0  0  0  0  0  0  0
  -48.0780   20.8930  -22.5470 C   0  0  0  0  0  0  0  0  0  0  0  0
  -49.0590   21.2950  -23.4510 C   0  0  0  0  0  0  0  0  0  0  0  0
  -50.3900   21.3670  -23.0470 C   0  0  0  0  0  0  0  0  0  0  0  0
  -50.7530   21.0150  -21.7440 C   0  0  0  0  0  0  0  0  0  0  0  0
  -49.7820   20.5650  -20.8140 C   0  0  0  0  0  0  0  0  0  0  0  0
  1  2  1  0
  2  3  1  0
  2 16  1  0
  3  4  2  0
  3  9  1  0
  4  5  1  0
  5  6  2  0
  6  7  1  0
  7  8  2  0
  7  9  1  0
  9 10  2  0
 10 11  1  0
 11 12  2  0
 11 16  1  0
 12 13  1  0
 13 14  2  0
 14 15  1  0
 15 16  2  0
M  END
>  <Conformer_ID>  (46) 
46

$$$$
ligand_0
     RDKit          3D

 16 18  0  0  0  0  0  0  0  0999 V2000
  -66.7580   22.2390  -15.2730 C   0  0  0  0  0  0  0  0  0  0  0  0
  -67.0970   20.8460  -14.9120 N   0  0  0  0  0  0  0  0  0  0  0  0
  -67.4580   20.5310  -13.6190 C   0  0  0  0  0  0  0  0  0  0  0  0
  -67.3190   21.4190  -12.5290 C   0  0  0  0  0  0  0  0  0  0  0  0
  -67.7550   21.0510  -11.2520 C   0  0  0  0  0  0  0  0  0  0  0  0
  -68.3210   19.7960  -11.0140 C   0  0  0  0  0  0  0  0  0  0  0  0
  -68.4390   18.8580  -12.0430 C   0  0  0  0  0  0  0  0  0  0  0  0
  -68.9280   17.7220  -11.7990 O   0  0  0  0  0  0  0  0  0  0  0  0
  -68.0050   19.1810  -13.3330 C   0  0  0  0  0  0  0  0  0  0  0  0
  -68.0510   18.2690  -14.3270 N   0  0  0  0  0  0  0  0  0  0  0  0
  -67.5890   18.5530  -15.5670 C   0  0  0  0  0  0  0  0  0  0  0  0
  -67.6140   17.5490  -16.5420 C   0  0  0  0  0  0  0  0  0  0  0  0
  -67.1000   17.7880  -17.8140 C   0  0  0  0  0  0  0  0  0  0  0  0
  -66.5430   19.0290  -18.1180 C   0  0  0  0  0  0  0  0  0  0  0  0
  -66.5190   20.0460  -17.1600 C   0  0  0  0  0  0  0  0  0  0  0  0
  -67.0700   19.8440  -15.8690 C   0  0  0  0  0  0  0  0  0  0  0  0
  1  2  1  0
  2  3  1  0
  2 16  1  0
  3  4  2  0
  3  9  1  0
  4  5  1  0
  5  6  2  0
  6  7  1  0
  7  8  2  0
  7  9  1  0
  9 10  2  0
 10 11  1  0
 11 12  2  0
 11 16  1  0
 12 13  1  0
 13 14  2  0
 14 15  1  0
 15 16  2  0
M  END
>  <Conformer_ID>  (47) 
47

$$$$
ligand_0
     RDKit          3D

 16 18  0  0  0  0  0  0  0  0999 V2000
  -77.2690    7.6520  -40.2390 C   0  0  0  0  0  0  0  0  0  0  0  0
  -77.4890    9.0490  -39.8080 N   0  0  0  0  0  0  0  0  0  0  0  0
  -77.5100    9.3680  -38.4660 C   0  0  0  0  0  0  0  0  0  0  0  0
  -77.5520    8.4050  -37.4340 C   0  0  0  0  0  0  0  0  0  0  0  0
  -77.5180    8.7990  -36.0920 C   0  0  0  0  0  0  0  0  0  0  0  0
  -77.4590   10.1480  -35.7360 C   0  0  0  0  0  0  0  0  0  0  0  0
  -77.4640   11.1470  -36.7120 C   0  0  0  0  0  0  0  0  0  0  0  0
  -77.4390   12.3590  -36.3670 O   0  0  0  0  0  0  0  0  0  0  0  0
  -77.5100   10.7960  -38.0660 C   0  0  0  0  0  0  0  0  0  0  0  0
  -77.5800   11.7450  -39.0240 N   0  0  0  0  0  0  0  0  0  0  0  0
  -77.6730   11.4190  -40.3340 C   0  0  0  0  0  0  0  0  0  0  0  0
  -77.7970   12.4460  -41.2770 C   0  0  0  0  0  0  0  0  0  0  0  0
  -77.9470   12.1470  -42.6300 C   0  0  0  0  0  0  0  0  0  0  0  0
  -77.9890   10.8200  -43.0490 C   0  0  0  0  0  0  0  0  0  0  0  0
  -77.8570    9.7820  -42.1220 C   0  0  0  0  0  0  0  0  0  0  0  0
  -77.6640   10.0550  -40.7440 C   0  0  0  0  0  0  0  0  0  0  0  0
  1  2  1  0
  2  3  1  0
  2 16  1  0
  3  4  2  0
  3  9  1  0
  4  5  1  0
  5  6  2  0
  6  7  1  0
  7  8  2  0
  7  9  1  0
  9 10  2  0
 10 11  1  0
 11 12  2  0
 11 16  1  0
 12 13  1  0
 13 14  2  0
 14 15  1  0
 15 16  2  0
M  END
>  <Conformer_ID>  (48) 
48

$$$$
ligand_0
     RDKit          3D

 16 18  0  0  0  0  0  0  0  0999 V2000
  -48.5840   24.6050  -20.4420 C   0  0  0  0  0  0  0  0  0  0  0  0
  -48.9590   23.2320  -20.8410 N   0  0  0  0  0  0  0  0  0  0  0  0
  -49.6720   22.4270  -19.9760 C   0  0  0  0  0  0  0  0  0  0  0  0
  -49.8960   22.7420  -18.6180 C   0  0  0  0  0  0  0  0  0  0  0  0
  -50.6730   21.9050  -17.8110 C   0  0  0  0  0  0  0  0  0  0  0  0
  -51.2340   20.7300  -18.3190 C   0  0  0  0  0  0  0  0  0  0  0  0
  -51.0070   20.3420  -19.6410 C   0  0  0  0  0  0  0  0  0  0  0  0
  -51.5010   19.2640  -20.0690 O   0  0  0  0  0  0  0  0  0  0  0  0
  -50.2250   21.1450  -20.4780 C   0  0  0  0  0  0  0  0  0  0  0  0
  -49.9400   20.7580  -21.7390 N   0  0  0  0  0  0  0  0  0  0  0  0
  -49.1460   21.5020  -22.5430 C   0  0  0  0  0  0  0  0  0  0  0  0
  -48.8430   21.0210  -23.8230 C   0  0  0  0  0  0  0  0  0  0  0  0
  -47.9860   21.7350  -24.6590 C   0  0  0  0  0  0  0  0  0  0  0  0
  -47.4150   22.9260  -24.2180 C   0  0  0  0  0  0  0  0  0  0  0  0
  -47.7140   23.4250  -22.9470 C   0  0  0  0  0  0  0  0  0  0  0  0
  -48.6120   22.7410  -22.0890 C   0  0  0  0  0  0  0  0  0  0  0  0
  1  2  1  0
  2  3  1  0
  2 16  1  0
  3  4  2  0
  3  9  1  0
  4  5  1  0
  5  6  2  0
  6  7  1  0
  7  8  2  0
  7  9  1  0
  9 10  2  0
 10 11  1  0
 11 12  2  0
 11 16  1  0
 12 13  1  0
 13 14  2  0
 14 15  1  0
 15 16  2  0
M  END
>  <Conformer_ID>  (49) 
49

$$$$
ligand_0
     RDKit          3D

 16 18  0  0  0  0  0  0  0  0999 V2000
  -71.3660   12.8530  -54.7270 C   0  0  0  0  0  0  0  0  0  0  0  0
  -71.6020   11.7730  -53.7450 N   0  0  0  0  0  0  0  0  0  0  0  0
  -70.5550   11.2680  -53.0020 C   0  0  0  0  0  0  0  0  0  0  0  0
  -69.1980   11.5600  -53.2630 C   0  0  0  0  0  0  0  0  0  0  0  0
  -68.1900   11.0540  -52.4360 C   0  0  0  0  0  0  0  0  0  0  0  0
  -68.4930   10.2370  -51.3430 C   0  0  0  0  0  0  0  0  0  0  0  0
  -69.8130    9.8760  -51.0650 C   0  0  0  0  0  0  0  0  0  0  0  0
  -70.0600    9.1150  -50.0900 O   0  0  0  0  0  0  0  0  0  0  0  0
  -70.8500   10.3500  -51.8750 C   0  0  0  0  0  0  0  0  0  0  0  0
  -72.1260    9.9620  -51.6630 N   0  0  0  0  0  0  0  0  0  0  0  0
  -73.1320   10.3750  -52.4680 C   0  0  0  0  0  0  0  0  0  0  0  0
  -74.4250    9.8960  -52.2300 C   0  0  0  0  0  0  0  0  0  0  0  0
  -75.4770   10.2580  -53.0700 C   0  0  0  0  0  0  0  0  0  0  0  0
  -75.2410   11.0900  -54.1620 C   0  0  0  0  0  0  0  0  0  0  0  0
  -73.9580   11.5850  -54.4090 C   0  0  0  0  0  0  0  0  0  0  0  0
  -72.8760   11.2650  -53.5500 C   0  0  0  0  0  0  0  0  0  0  0  0
  1  2  1  0
  2  3  1  0
  2 16  1  0
  3  4  2  0
  3  9  1  0
  4  5  1  0
  5  6  2  0
  6  7  1  0
  7  8  2  0
  7  9  1  0
  9 10  2  0
 10 11  1  0
 11 12  2  0
 11 16  1  0
 12 13  1  0
 13 14  2  0
 14 15  1  0
 15 16  2  0
M  END
>  <Conformer_ID>  (50) 
50

$$$$
ligand_0
     RDKit          3D

 16 18  0  0  0  0  0  0  0  0999 V2000
  -46.4130   -0.7370   -8.0040 C   0  0  0  0  0  0  0  0  0  0  0  0
  -45.6350    0.4750   -8.3350 N   0  0  0  0  0  0  0  0  0  0  0  0
  -46.1480    1.7270   -8.0640 C   0  0  0  0  0  0  0  0  0  0  0  0
  -47.4870    1.9570   -7.6790 C   0  0  0  0  0  0  0  0  0  0  0  0
  -47.9270    3.2480   -7.3690 C   0  0  0  0  0  0  0  0  0  0  0  0
  -47.0630    4.3430   -7.4450 C   0  0  0  0  0  0  0  0  0  0  0  0
  -45.7400    4.1840   -7.8660 C   0  0  0  0  0  0  0  0  0  0  0  0
  -44.9870    5.1910   -7.9540 O   0  0  0  0  0  0  0  0  0  0  0  0
  -45.2650    2.9110   -8.1980 C   0  0  0  0  0  0  0  0  0  0  0  0
  -44.0100    2.7430   -8.6680 N   0  0  0  0  0  0  0  0  0  0  0  0
  -43.5530    1.5240   -9.0380 C   0  0  0  0  0  0  0  0  0  0  0  0
  -42.2620    1.4210   -9.5680 C   0  0  0  0  0  0  0  0  0  0  0  0
  -41.7760    0.1910  -10.0080 C   0  0  0  0  0  0  0  0  0  0  0  0
  -42.5830   -0.9420   -9.9350 C   0  0  0  0  0  0  0  0  0  0  0  0
  -43.8710   -0.8600   -9.4000 C   0  0  0  0  0  0  0  0  0  0  0  0
  -44.3780    0.3700   -8.9080 C   0  0  0  0  0  0  0  0  0  0  0  0
  1  2  1  0
  2  3  1  0
  2 16  1  0
  3  4  2  0
  3  9  1  0
  4  5  1  0
  5  6  2  0
  6  7  1  0
  7  8  2  0
  7  9  1  0
  9 10  2  0
 10 11  1  0
 11 12  2  0
 11 16  1  0
 12 13  1  0
 13 14  2  0
 14 15  1  0
 15 16  2  0
M  END
>  <Conformer_ID>  (51) 
51

$$$$
ligand_0
     RDKit          3D

 16 18  0  0  0  0  0  0  0  0999 V2000
  -77.2040   11.3170  -37.0810 C   0  0  0  0  0  0  0  0  0  0  0  0
  -78.0090   11.9530  -38.1470 N   0  0  0  0  0  0  0  0  0  0  0  0
  -78.9230   12.9370  -37.8340 C   0  0  0  0  0  0  0  0  0  0  0  0
  -79.3190   13.2470  -36.5150 C   0  0  0  0  0  0  0  0  0  0  0  0
  -80.2130   14.2940  -36.2670 C   0  0  0  0  0  0  0  0  0  0  0  0
  -80.7500   15.0490  -37.3130 C   0  0  0  0  0  0  0  0  0  0  0  0
  -80.4330   14.7570  -38.6420 C   0  0  0  0  0  0  0  0  0  0  0  0
  -80.9510   15.4330  -39.5710 O   0  0  0  0  0  0  0  0  0  0  0  0
  -79.5520   13.7100  -38.9340 C   0  0  0  0  0  0  0  0  0  0  0  0
  -79.2820   13.3690  -40.2120 N   0  0  0  0  0  0  0  0  0  0  0  0
  -78.4690   12.3280  -40.5080 C   0  0  0  0  0  0  0  0  0  0  0  0
  -78.2690   11.9900  -41.8510 C   0  0  0  0  0  0  0  0  0  0  0  0
  -77.4820   10.8930  -42.1920 C   0  0  0  0  0  0  0  0  0  0  0  0
  -76.9000   10.1160  -41.1930 C   0  0  0  0  0  0  0  0  0  0  0  0
  -77.0810   10.4440  -39.8470 C   0  0  0  0  0  0  0  0  0  0  0  0
  -77.8450   11.5780  -39.4710 C   0  0  0  0  0  0  0  0  0  0  0  0
  1  2  1  0
  2  3  1  0
  2 16  1  0
  3  4  2  0
  3  9  1  0
  4  5  1  0
  5  6  2  0
  6  7  1  0
  7  8  2  0
  7  9  1  0
  9 10  2  0
 10 11  1  0
 11 12  2  0
 11 16  1  0
 12 13  1  0
 13 14  2  0
 14 15  1  0
 15 16  2  0
M  END
>  <Conformer_ID>  (52) 
52

$$$$
ligand_0
     RDKit          3D

 16 18  0  0  0  0  0  0  0  0999 V2000
  -77.5420    7.3370  -38.6480 C   0  0  0  0  0  0  0  0  0  0  0  0
  -77.5830    8.6440  -39.3380 N   0  0  0  0  0  0  0  0  0  0  0  0
  -77.5120    9.8150  -38.6130 C   0  0  0  0  0  0  0  0  0  0  0  0
  -77.6210    9.8730  -37.2060 C   0  0  0  0  0  0  0  0  0  0  0  0
  -77.4870   11.0910  -36.5320 C   0  0  0  0  0  0  0  0  0  0  0  0
  -77.2600   12.2820  -37.2270 C   0  0  0  0  0  0  0  0  0  0  0  0
  -77.1910   12.2940  -38.6220 C   0  0  0  0  0  0  0  0  0  0  0  0
  -77.0130   13.3840  -39.2300 O   0  0  0  0  0  0  0  0  0  0  0  0
  -77.3320   11.0990  -39.3360 C   0  0  0  0  0  0  0  0  0  0  0  0
  -77.3330   11.0960  -40.6860 N   0  0  0  0  0  0  0  0  0  0  0  0
  -77.5160    9.9540  -41.3890 C   0  0  0  0  0  0  0  0  0  0  0  0
  -77.5610   10.0220  -42.7860 C   0  0  0  0  0  0  0  0  0  0  0  0
  -77.8000    8.8760  -43.5410 C   0  0  0  0  0  0  0  0  0  0  0  0
  -78.0110    7.6550  -42.9050 C   0  0  0  0  0  0  0  0  0  0  0  0
  -77.9600    7.5660  -41.5110 C   0  0  0  0  0  0  0  0  0  0  0  0
  -77.6800    8.7080  -40.7180 C   0  0  0  0  0  0  0  0  0  0  0  0
  1  2  1  0
  2  3  1  0
  2 16  1  0
  3  4  2  0
  3  9  1  0
  4  5  1  0
  5  6  2  0
  6  7  1  0
  7  8  2  0
  7  9  1  0
  9 10  2  0
 10 11  1  0
 11 12  2  0
 11 16  1  0
 12 13  1  0
 13 14  2  0
 14 15  1  0
 15 16  2  0
M  END
>  <Conformer_ID>  (53) 
53

$$$$
ligand_0
     RDKit          3D

 16 18  0  0  0  0  0  0  0  0999 V2000
  -52.7620   22.1880  -20.1470 C   0  0  0  0  0  0  0  0  0  0  0  0
  -51.3870   21.6810  -19.9520 N   0  0  0  0  0  0  0  0  0  0  0  0
  -50.5720   21.4430  -21.0390 C   0  0  0  0  0  0  0  0  0  0  0  0
  -51.0310   21.4400  -22.3750 C   0  0  0  0  0  0  0  0  0  0  0  0
  -50.1390   21.2420  -23.4330 C   0  0  0  0  0  0  0  0  0  0  0  0
  -48.7780   21.0260  -23.2010 C   0  0  0  0  0  0  0  0  0  0  0  0
  -48.2750   20.9700  -21.9000 C   0  0  0  0  0  0  0  0  0  0  0  0
  -47.0480   20.7460  -21.7130 O   0  0  0  0  0  0  0  0  0  0  0  0
  -49.1360   21.1510  -20.8120 C   0  0  0  0  0  0  0  0  0  0  0  0
  -48.6830   21.0370  -19.5450 N   0  0  0  0  0  0  0  0  0  0  0  0
  -49.5150   21.1620  -18.4850 C   0  0  0  0  0  0  0  0  0  0  0  0
  -48.9960   20.9800  -17.1970 C   0  0  0  0  0  0  0  0  0  0  0  0
  -49.8330   21.0490  -16.0850 C   0  0  0  0  0  0  0  0  0  0  0  0
  -51.1950   21.2860  -16.2510 C   0  0  0  0  0  0  0  0  0  0  0  0
  -51.7270   21.4790  -17.5290 C   0  0  0  0  0  0  0  0  0  0  0  0
  -50.8950   21.4530  -18.6770 C   0  0  0  0  0  0  0  0  0  0  0  0
  1  2  1  0
  2  3  1  0
  2 16  1  0
  3  4  2  0
  3  9  1  0
  4  5  1  0
  5  6  2  0
  6  7  1  0
  7  8  2  0
  7  9  1  0
  9 10  2  0
 10 11  1  0
 11 12  2  0
 11 16  1  0
 12 13  1  0
 13 14  2  0
 14 15  1  0
 15 16  2  0
M  END
>  <Conformer_ID>  (54) 
54

$$$$
ligand_0
     RDKit          3D

 16 18  0  0  0  0  0  0  0  0999 V2000
  -36.9360    5.3040  -41.3030 C   0  0  0  0  0  0  0  0  0  0  0  0
  -37.6820    4.1320  -40.7960 N   0  0  0  0  0  0  0  0  0  0  0  0
  -37.9750    3.0780  -41.6360 C   0  0  0  0  0  0  0  0  0  0  0  0
  -37.8030    3.1220  -43.0370 C   0  0  0  0  0  0  0  0  0  0  0  0
  -38.0720    1.9970  -43.8220 C   0  0  0  0  0  0  0  0  0  0  0  0
  -38.5320    0.8080  -43.2500 C   0  0  0  0  0  0  0  0  0  0  0  0
  -38.7680    0.7200  -41.8760 C   0  0  0  0  0  0  0  0  0  0  0  0
  -39.2100   -0.3530  -41.3850 O   0  0  0  0  0  0  0  0  0  0  0  0
  -38.5230    1.8270  -41.0560 C   0  0  0  0  0  0  0  0  0  0  0  0
  -38.8040    1.7850  -39.7360 N   0  0  0  0  0  0  0  0  0  0  0  0
  -38.6170    2.8640  -38.9400 C   0  0  0  0  0  0  0  0  0  0  0  0
  -38.9770    2.7760  -37.5900 C   0  0  0  0  0  0  0  0  0  0  0  0
  -38.8490    3.8820  -36.7530 C   0  0  0  0  0  0  0  0  0  0  0  0
  -38.3730    5.0890  -37.2610 C   0  0  0  0  0  0  0  0  0  0  0  0
  -37.9990    5.1910  -38.6040 C   0  0  0  0  0  0  0  0  0  0  0  0
  -38.0830    4.0720  -39.4710 C   0  0  0  0  0  0  0  0  0  0  0  0
  1  2  1  0
  2  3  1  0
  2 16  1  0
  3  4  2  0
  3  9  1  0
  4  5  1  0
  5  6  2  0
  6  7  1  0
  7  8  2  0
  7  9  1  0
  9 10  2  0
 10 11  1  0
 11 12  2  0
 11 16  1  0
 12 13  1  0
 13 14  2  0
 14 15  1  0
 15 16  2  0
M  END
>  <Conformer_ID>  (55) 
55

$$$$
ligand_0
     RDKit          3D

 16 18  0  0  0  0  0  0  0  0999 V2000
  -54.4800   -3.9200  -46.7430 C   0  0  0  0  0  0  0  0  0  0  0  0
  -54.5910   -2.5670  -46.1580 N   0  0  0  0  0  0  0  0  0  0  0  0
  -55.3770   -2.3530  -45.0440 C   0  0  0  0  0  0  0  0  0  0  0  0
  -56.2820   -3.3080  -44.5300 C   0  0  0  0  0  0  0  0  0  0  0  0
  -57.0100   -3.0430  -43.3660 C   0  0  0  0  0  0  0  0  0  0  0  0
  -56.8770   -1.8270  -42.6910 C   0  0  0  0  0  0  0  0  0  0  0  0
  -56.0350   -0.8260  -43.1790 C   0  0  0  0  0  0  0  0  0  0  0  0
  -55.9520    0.2750  -42.5690 O   0  0  0  0  0  0  0  0  0  0  0  0
  -55.2980   -1.0450  -44.3480 C   0  0  0  0  0  0  0  0  0  0  0  0
  -54.5260   -0.0700  -44.8730 N   0  0  0  0  0  0  0  0  0  0  0  0
  -53.8460   -0.2530  -46.0290 C   0  0  0  0  0  0  0  0  0  0  0  0
  -53.1060    0.8140  -46.5510 C   0  0  0  0  0  0  0  0  0  0  0  0
  -52.4360    0.6790  -47.7650 C   0  0  0  0  0  0  0  0  0  0  0  0
  -52.5110   -0.5180  -48.4730 C   0  0  0  0  0  0  0  0  0  0  0  0
  -53.2370   -1.5970  -47.9610 C   0  0  0  0  0  0  0  0  0  0  0  0
  -53.8980   -1.5020  -46.7100 C   0  0  0  0  0  0  0  0  0  0  0  0
  1  2  1  0
  2  3  1  0
  2 16  1  0
  3  4  2  0
  3  9  1  0
  4  5  1  0
  5  6  2  0
  6  7  1  0
  7  8  2  0
  7  9  1  0
  9 10  2  0
 10 11  1  0
 11 12  2  0
 11 16  1  0
 12 13  1  0
 13 14  2  0
 14 15  1  0
 15 16  2  0
M  END
>  <Conformer_ID>  (56) 
56

$$$$
ligand_0
     RDKit          3D

 16 18  0  0  0  0  0  0  0  0999 V2000
  -50.3270   -1.5270  -45.4100 C   0  0  0  0  0  0  0  0  0  0  0  0
  -51.7130   -1.0290  -45.5460 N   0  0  0  0  0  0  0  0  0  0  0  0
  -52.6700   -1.3740  -44.6140 C   0  0  0  0  0  0  0  0  0  0  0  0
  -52.4800   -2.3670  -43.6280 C   0  0  0  0  0  0  0  0  0  0  0  0
  -53.4760   -2.6280  -42.6810 C   0  0  0  0  0  0  0  0  0  0  0  0
  -54.6860   -1.9310  -42.6930 C   0  0  0  0  0  0  0  0  0  0  0  0
  -54.9490   -0.9710  -43.6730 C   0  0  0  0  0  0  0  0  0  0  0  0
  -56.0590   -0.3740  -43.6810 O   0  0  0  0  0  0  0  0  0  0  0  0
  -53.9850   -0.6880  -44.6470 C   0  0  0  0  0  0  0  0  0  0  0  0
  -54.2420    0.1890  -45.6410 N   0  0  0  0  0  0  0  0  0  0  0  0
  -53.3360    0.4360  -46.6150 C   0  0  0  0  0  0  0  0  0  0  0  0
  -53.6820    1.3150  -47.6490 C   0  0  0  0  0  0  0  0  0  0  0  0
  -52.7950    1.5530  -48.6970 C   0  0  0  0  0  0  0  0  0  0  0  0
  -51.5630    0.9040  -48.7280 C   0  0  0  0  0  0  0  0  0  0  0  0
  -51.1980    0.0310  -47.6990 C   0  0  0  0  0  0  0  0  0  0  0  0
  -52.0630   -0.2010  -46.6000 C   0  0  0  0  0  0  0  0  0  0  0  0
  1  2  1  0
  2  3  1  0
  2 16  1  0
  3  4  2  0
  3  9  1  0
  4  5  1  0
  5  6  2  0
  6  7  1  0
  7  8  2  0
  7  9  1  0
  9 10  2  0
 10 11  1  0
 11 12  2  0
 11 16  1  0
 12 13  1  0
 13 14  2  0
 14 15  1  0
 15 16  2  0
M  END
>  <Conformer_ID>  (57) 
57

$$$$
ligand_0
     RDKit          3D

 16 18  0  0  0  0  0  0  0  0999 V2000
  -35.5460    3.8620  -40.6900 C   0  0  0  0  0  0  0  0  0  0  0  0
  -36.5740    3.8910  -39.6270 N   0  0  0  0  0  0  0  0  0  0  0  0
  -36.4020    4.6900  -38.5160 C   0  0  0  0  0  0  0  0  0  0  0  0
  -35.1890    5.3400  -38.1990 C   0  0  0  0  0  0  0  0  0  0  0  0
  -35.1010    6.1780  -37.0830 C   0  0  0  0  0  0  0  0  0  0  0  0
  -36.1990    6.3830  -36.2440 C   0  0  0  0  0  0  0  0  0  0  0  0
  -37.4100    5.7290  -36.4790 C   0  0  0  0  0  0  0  0  0  0  0  0
  -38.3800    5.9070  -35.6930 O   0  0  0  0  0  0  0  0  0  0  0  0
  -37.5370    4.8720  -37.5780 C   0  0  0  0  0  0  0  0  0  0  0  0
  -38.6770    4.1810  -37.7880 N   0  0  0  0  0  0  0  0  0  0  0  0
  -38.7960    3.3130  -38.8200 C   0  0  0  0  0  0  0  0  0  0  0  0
  -39.9840    2.5850  -38.9550 C   0  0  0  0  0  0  0  0  0  0  0  0
  -40.1230    1.6440  -39.9730 C   0  0  0  0  0  0  0  0  0  0  0  0
  -39.0710    1.4130  -40.8560 C   0  0  0  0  0  0  0  0  0  0  0  0
  -37.8810    2.1380  -40.7420 C   0  0  0  0  0  0  0  0  0  0  0  0
  -37.7250    3.1290  -39.7400 C   0  0  0  0  0  0  0  0  0  0  0  0
  1  2  1  0
  2  3  1  0
  2 16  1  0
  3  4  2  0
  3  9  1  0
  4  5  1  0
  5  6  2  0
  6  7  1  0
  7  8  2  0
  7  9  1  0
  9 10  2  0
 10 11  1  0
 11 12  2  0
 11 16  1  0
 12 13  1  0
 13 14  2  0
 14 15  1  0
 15 16  2  0
M  END
>  <Conformer_ID>  (58) 
58

$$$$
ligand_0
     RDKit          3D

 16 18  0  0  0  0  0  0  0  0999 V2000
  -62.0740   11.7560   -3.5270 C   0  0  0  0  0  0  0  0  0  0  0  0
  -62.7430   11.3750   -4.7880 N   0  0  0  0  0  0  0  0  0  0  0  0
  -62.1270   11.6070   -6.0010 C   0  0  0  0  0  0  0  0  0  0  0  0
  -60.9660   12.3980   -6.1500 C   0  0  0  0  0  0  0  0  0  0  0  0
  -60.3640   12.5480   -7.4030 C   0  0  0  0  0  0  0  0  0  0  0  0
  -60.8990   11.9380   -8.5400 C   0  0  0  0  0  0  0  0  0  0  0  0
  -62.0720   11.1850   -8.4630 C   0  0  0  0  0  0  0  0  0  0  0  0
  -62.5530   10.6670   -9.5070 O   0  0  0  0  0  0  0  0  0  0  0  0
  -62.7130   11.0200   -7.2300 C   0  0  0  0  0  0  0  0  0  0  0  0
  -63.8820   10.3500   -7.1430 N   0  0  0  0  0  0  0  0  0  0  0  0
  -64.5370   10.2240   -5.9650 C   0  0  0  0  0  0  0  0  0  0  0  0
  -65.7710    9.5640   -5.9470 C   0  0  0  0  0  0  0  0  0  0  0  0
  -66.4990    9.4610   -4.7640 C   0  0  0  0  0  0  0  0  0  0  0  0
  -66.0050   10.0280   -3.5910 C   0  0  0  0  0  0  0  0  0  0  0  0
  -64.7700   10.6820   -3.5890 C   0  0  0  0  0  0  0  0  0  0  0  0
  -63.9890   10.7690   -4.7690 C   0  0  0  0  0  0  0  0  0  0  0  0
  1  2  1  0
  2  3  1  0
  2 16  1  0
  3  4  2  0
  3  9  1  0
  4  5  1  0
  5  6  2  0
  6  7  1  0
  7  8  2  0
  7  9  1  0
  9 10  2  0
 10 11  1  0
 11 12  2  0
 11 16  1  0
 12 13  1  0
 13 14  2  0
 14 15  1  0
 15 16  2  0
M  END
>  <Conformer_ID>  (59) 
59

$$$$
ligand_0
     RDKit          3D

 16 18  0  0  0  0  0  0  0  0999 V2000
  -52.4880   -2.4660  -44.0410 C   0  0  0  0  0  0  0  0  0  0  0  0
  -53.8270   -3.0840  -44.1340 N   0  0  0  0  0  0  0  0  0  0  0  0
  -53.9620   -4.3940  -44.5450 C   0  0  0  0  0  0  0  0  0  0  0  0
  -52.9090   -5.1500  -45.1060 C   0  0  0  0  0  0  0  0  0  0  0  0
  -53.1020   -6.4900  -45.4540 C   0  0  0  0  0  0  0  0  0  0  0  0
  -54.3400   -7.1130  -45.2720 C   0  0  0  0  0  0  0  0  0  0  0  0
  -55.4310   -6.4030  -44.7670 C   0  0  0  0  0  0  0  0  0  0  0  0
  -56.5450   -6.9780  -44.6380 O   0  0  0  0  0  0  0  0  0  0  0  0
  -55.2830   -5.0560  -44.4190 C   0  0  0  0  0  0  0  0  0  0  0  0
  -56.3390   -4.3330  -43.9880 N   0  0  0  0  0  0  0  0  0  0  0  0
  -56.2210   -3.0180  -43.6940 C   0  0  0  0  0  0  0  0  0  0  0  0
  -57.3630   -2.3090  -43.3040 C   0  0  0  0  0  0  0  0  0  0  0  0
  -57.2900   -0.9420  -43.0440 C   0  0  0  0  0  0  0  0  0  0  0  0
  -56.0780   -0.2700  -43.1840 C   0  0  0  0  0  0  0  0  0  0  0  0
  -54.9260   -0.9640  -43.5630 C   0  0  0  0  0  0  0  0  0  0  0  0
  -54.9610   -2.3620  -43.7970 C   0  0  0  0  0  0  0  0  0  0  0  0
  1  2  1  0
  2  3  1  0
  2 16  1  0
  3  4  2  0
  3  9  1  0
  4  5  1  0
  5  6  2  0
  6  7  1  0
  7  8  2  0
  7  9  1  0
  9 10  2  0
 10 11  1  0
 11 12  2  0
 11 16  1  0
 12 13  1  0
 13 14  2  0
 14 15  1  0
 15 16  2  0
M  END
>  <Conformer_ID>  (60) 
60

$$$$
ligand_0
     RDKit          3D

 16 18  0  0  0  0  0  0  0  0999 V2000
  -52.7090   -2.7620  -45.6400 C   0  0  0  0  0  0  0  0  0  0  0  0
  -53.9420   -3.2330  -44.9740 N   0  0  0  0  0  0  0  0  0  0  0  0
  -54.7490   -2.3430  -44.2960 C   0  0  0  0  0  0  0  0  0  0  0  0
  -54.3720   -1.0160  -43.9950 C   0  0  0  0  0  0  0  0  0  0  0  0
  -55.2620   -0.1520  -43.3490 C   0  0  0  0  0  0  0  0  0  0  0  0
  -56.5370   -0.5790  -42.9700 C   0  0  0  0  0  0  0  0  0  0  0  0
  -56.9490   -1.8940  -43.1980 C   0  0  0  0  0  0  0  0  0  0  0  0
  -58.0930   -2.2650  -42.8220 O   0  0  0  0  0  0  0  0  0  0  0  0
  -56.0840   -2.7940  -43.8300 C   0  0  0  0  0  0  0  0  0  0  0  0
  -56.4360   -4.0860  -44.0030 N   0  0  0  0  0  0  0  0  0  0  0  0
  -55.5900   -4.9780  -44.5700 C   0  0  0  0  0  0  0  0  0  0  0  0
  -55.9920   -6.3150  -44.6730 C   0  0  0  0  0  0  0  0  0  0  0  0
  -55.1280   -7.2710  -45.2030 C   0  0  0  0  0  0  0  0  0  0  0  0
  -53.8520   -6.9020  -45.6200 C   0  0  0  0  0  0  0  0  0  0  0  0
  -53.4380   -5.5700  -45.5330 C   0  0  0  0  0  0  0  0  0  0  0  0
  -54.3090   -4.5670  -45.0350 C   0  0  0  0  0  0  0  0  0  0  0  0
  1  2  1  0
  2  3  1  0
  2 16  1  0
  3  4  2  0
  3  9  1  0
  4  5  1  0
  5  6  2  0
  6  7  1  0
  7  8  2  0
  7  9  1  0
  9 10  2  0
 10 11  1  0
 11 12  2  0
 11 16  1  0
 12 13  1  0
 13 14  2  0
 14 15  1  0
 15 16  2  0
M  END
>  <Conformer_ID>  (61) 
61

$$$$
ligand_0
     RDKit          3D

 16 18  0  0  0  0  0  0  0  0999 V2000
  -44.7000   21.3310  -20.8890 C   0  0  0  0  0  0  0  0  0  0  0  0
  -46.0820   20.9790  -21.2800 N   0  0  0  0  0  0  0  0  0  0  0  0
  -46.9250   20.3620  -20.3790 C   0  0  0  0  0  0  0  0  0  0  0  0
  -46.4950   19.8290  -19.1440 C   0  0  0  0  0  0  0  0  0  0  0  0
  -47.4140   19.2630  -18.2550 C   0  0  0  0  0  0  0  0  0  0  0  0
  -48.7740   19.1940  -18.5680 C   0  0  0  0  0  0  0  0  0  0  0  0
  -49.2510   19.6610  -19.7950 C   0  0  0  0  0  0  0  0  0  0  0  0
  -50.4780   19.5620  -20.0670 O   0  0  0  0  0  0  0  0  0  0  0  0
  -48.3620   20.2230  -20.7180 C   0  0  0  0  0  0  0  0  0  0  0  0
  -48.7910   20.6220  -21.9350 N   0  0  0  0  0  0  0  0  0  0  0  0
  -47.9330   21.1230  -22.8550 C   0  0  0  0  0  0  0  0  0  0  0  0
  -48.4280   21.4700  -24.1180 C   0  0  0  0  0  0  0  0  0  0  0  0
  -47.5660   21.9390  -25.1070 C   0  0  0  0  0  0  0  0  0  0  0  0
  -46.2030   22.0530  -24.8470 C   0  0  0  0  0  0  0  0  0  0  0  0
  -45.6940   21.7210  -23.5880 C   0  0  0  0  0  0  0  0  0  0  0  0
  -46.5510   21.2770  -22.5500 C   0  0  0  0  0  0  0  0  0  0  0  0
  1  2  1  0
  2  3  1  0
  2 16  1  0
  3  4  2  0
  3  9  1  0
  4  5  1  0
  5  6  2  0
  6  7  1  0
  7  8  2  0
  7  9  1  0
  9 10  2  0
 10 11  1  0
 11 12  2  0
 11 16  1  0
 12 13  1  0
 13 14  2  0
 14 15  1  0
 15 16  2  0
M  END
>  <Conformer_ID>  (62) 
62

$$$$
ligand_0
     RDKit          3D

 16 18  0  0  0  0  0  0  0  0999 V2000
  -45.7680   21.3250  -21.9210 C   0  0  0  0  0  0  0  0  0  0  0  0
  -46.9310   20.7720  -21.1950 N   0  0  0  0  0  0  0  0  0  0  0  0
  -46.7730   20.2400  -19.9320 C   0  0  0  0  0  0  0  0  0  0  0  0
  -45.5170   19.9770  -19.3440 C   0  0  0  0  0  0  0  0  0  0  0  0
  -45.4300   19.4850  -18.0380 C   0  0  0  0  0  0  0  0  0  0  0  0
  -46.5780   19.2240  -17.2860 C   0  0  0  0  0  0  0  0  0  0  0  0
  -47.8500   19.4180  -17.8310 C   0  0  0  0  0  0  0  0  0  0  0  0
  -48.8720   19.1490  -17.1440 O   0  0  0  0  0  0  0  0  0  0  0  0
  -47.9800   19.8980  -19.1390 C   0  0  0  0  0  0  0  0  0  0  0  0
  -49.1970   20.0320  -19.7080 N   0  0  0  0  0  0  0  0  0  0  0  0
  -49.3360   20.4490  -20.9880 C   0  0  0  0  0  0  0  0  0  0  0  0
  -50.6200   20.5170  -21.5400 C   0  0  0  0  0  0  0  0  0  0  0  0
  -50.7970   20.8920  -22.8700 C   0  0  0  0  0  0  0  0  0  0  0  0
  -49.6910   21.1870  -23.6630 C   0  0  0  0  0  0  0  0  0  0  0  0
  -48.4020   21.1340  -23.1260 C   0  0  0  0  0  0  0  0  0  0  0  0
  -48.1930   20.7940  -21.7660 C   0  0  0  0  0  0  0  0  0  0  0  0
  1  2  1  0
  2  3  1  0
  2 16  1  0
  3  4  2  0
  3  9  1  0
  4  5  1  0
  5  6  2  0
  6  7  1  0
  7  8  2  0
  7  9  1  0
  9 10  2  0
 10 11  1  0
 11 12  2  0
 11 16  1  0
 12 13  1  0
 13 14  2  0
 14 15  1  0
 15 16  2  0
M  END
>  <Conformer_ID>  (63) 
63

$$$$
ligand_0
     RDKit          3D

 16 18  0  0  0  0  0  0  0  0999 V2000
  -70.2650    6.2070  -53.6240 C   0  0  0  0  0  0  0  0  0  0  0  0
  -70.6220    7.4930  -52.9880 N   0  0  0  0  0  0  0  0  0  0  0  0
  -71.8640    7.6630  -52.4120 C   0  0  0  0  0  0  0  0  0  0  0  0
  -72.9320    6.7530  -52.5720 C   0  0  0  0  0  0  0  0  0  0  0  0
  -74.1490    6.9620  -51.9160 C   0  0  0  0  0  0  0  0  0  0  0  0
  -74.3480    8.0790  -51.1000 C   0  0  0  0  0  0  0  0  0  0  0  0
  -73.3450    9.0380  -50.9420 C   0  0  0  0  0  0  0  0  0  0  0  0
  -73.5560   10.0520  -50.2230 O   0  0  0  0  0  0  0  0  0  0  0  0
  -72.1170    8.8730  -51.5910 C   0  0  0  0  0  0  0  0  0  0  0  0
  -71.1560    9.8180  -51.5040 N   0  0  0  0  0  0  0  0  0  0  0  0
  -69.9820    9.6930  -52.1660 C   0  0  0  0  0  0  0  0  0  0  0  0
  -69.0470   10.7310  -52.0800 C   0  0  0  0  0  0  0  0  0  0  0  0
  -67.8500   10.6620  -52.7890 C   0  0  0  0  0  0  0  0  0  0  0  0
  -67.5840    9.5620  -53.6010 C   0  0  0  0  0  0  0  0  0  0  0  0
  -68.5020    8.5120  -53.6910 C   0  0  0  0  0  0  0  0  0  0  0  0
  -69.7110    8.5360  -52.9510 C   0  0  0  0  0  0  0  0  0  0  0  0
  1  2  1  0
  2  3  1  0
  2 16  1  0
  3  4  2  0
  3  9  1  0
  4  5  1  0
  5  6  2  0
  6  7  1  0
  7  8  2  0
  7  9  1  0
  9 10  2  0
 10 11  1  0
 11 12  2  0
 11 16  1  0
 12 13  1  0
 13 14  2  0
 14 15  1  0
 15 16  2  0
M  END
>  <Conformer_ID>  (64) 
64

$$$$
ligand_0
     RDKit          3D

 16 18  0  0  0  0  0  0  0  0999 V2000
  -43.1630   -1.0890   -5.0850 C   0  0  0  0  0  0  0  0  0  0  0  0
  -42.2990   -0.9650   -6.2790 N   0  0  0  0  0  0  0  0  0  0  0  0
  -42.8220   -0.5090   -7.4710 C   0  0  0  0  0  0  0  0  0  0  0  0
  -44.2040   -0.3490   -7.7090 C   0  0  0  0  0  0  0  0  0  0  0  0
  -44.6620    0.1680   -8.9250 C   0  0  0  0  0  0  0  0  0  0  0  0
  -43.7700    0.5240   -9.9410 C   0  0  0  0  0  0  0  0  0  0  0  0
  -42.3950    0.3420   -9.7810 C   0  0  0  0  0  0  0  0  0  0  0  0
  -41.6110    0.6440  -10.7220 O   0  0  0  0  0  0  0  0  0  0  0  0
  -41.8960   -0.1840   -8.5850 C   0  0  0  0  0  0  0  0  0  0  0  0
  -40.5770   -0.4270   -8.4330 N   0  0  0  0  0  0  0  0  0  0  0  0
  -40.0880   -0.9800   -7.2980 C   0  0  0  0  0  0  0  0  0  0  0  0
  -38.7180   -1.2580   -7.2210 C   0  0  0  0  0  0  0  0  0  0  0  0
  -38.1870   -1.8740   -6.0900 C   0  0  0  0  0  0  0  0  0  0  0  0
  -39.0230   -2.2310   -5.0340 C   0  0  0  0  0  0  0  0  0  0  0  0
  -40.3910   -1.9530   -5.0910 C   0  0  0  0  0  0  0  0  0  0  0  0
  -40.9540   -1.2910   -6.2120 C   0  0  0  0  0  0  0  0  0  0  0  0
  1  2  1  0
  2  3  1  0
  2 16  1  0
  3  4  2  0
  3  9  1  0
  4  5  1  0
  5  6  2  0
  6  7  1  0
  7  8  2  0
  7  9  1  0
  9 10  2  0
 10 11  1  0
 11 12  2  0
 11 16  1  0
 12 13  1  0
 13 14  2  0
 14 15  1  0
 15 16  2  0
M  END
>  <Conformer_ID>  (65) 
65

$$$$
ligand_0
     RDKit          3D

 16 18  0  0  0  0  0  0  0  0999 V2000
  -32.3310   11.5370  -25.3090 C   0  0  0  0  0  0  0  0  0  0  0  0
  -32.9760   11.5960  -26.6380 N   0  0  0  0  0  0  0  0  0  0  0  0
  -32.3030   11.1550  -27.7590 C   0  0  0  0  0  0  0  0  0  0  0  0
  -30.9260   10.8410  -27.7710 C   0  0  0  0  0  0  0  0  0  0  0  0
  -30.3190   10.3500  -28.9310 C   0  0  0  0  0  0  0  0  0  0  0  0
  -31.0490   10.1720  -30.1100 C   0  0  0  0  0  0  0  0  0  0  0  0
  -32.4030   10.5110  -30.1710 C   0  0  0  0  0  0  0  0  0  0  0  0
  -33.0350   10.3680  -31.2520 O   0  0  0  0  0  0  0  0  0  0  0  0
  -33.0450   11.0180  -29.0360 C   0  0  0  0  0  0  0  0  0  0  0  0
  -34.3350   11.4110  -29.0900 N   0  0  0  0  0  0  0  0  0  0  0  0
  -34.9550   11.9470  -28.0120 C   0  0  0  0  0  0  0  0  0  0  0  0
  -36.2770   12.3860  -28.1450 C   0  0  0  0  0  0  0  0  0  0  0  0
  -36.9300   12.9910  -27.0730 C   0  0  0  0  0  0  0  0  0  0  0  0
  -36.2620   13.1750  -25.8640 C   0  0  0  0  0  0  0  0  0  0  0  0
  -34.9450   12.7340  -25.7120 C   0  0  0  0  0  0  0  0  0  0  0  0
  -34.2670   12.0800  -26.7720 C   0  0  0  0  0  0  0  0  0  0  0  0
  1  2  1  0
  2  3  1  0
  2 16  1  0
  3  4  2  0
  3  9  1  0
  4  5  1  0
  5  6  2  0
  6  7  1  0
  7  8  2  0
  7  9  1  0
  9 10  2  0
 10 11  1  0
 11 12  2  0
 11 16  1  0
 12 13  1  0
 13 14  2  0
 14 15  1  0
 15 16  2  0
M  END
>  <Conformer_ID>  (66) 
66

$$$$
ligand_0
     RDKit          3D

 16 18  0  0  0  0  0  0  0  0999 V2000
  -61.7510   12.0370   -4.1030 C   0  0  0  0  0  0  0  0  0  0  0  0
  -61.3700   12.4090   -5.4830 N   0  0  0  0  0  0  0  0  0  0  0  0
  -60.4730   13.4340   -5.7040 C   0  0  0  0  0  0  0  0  0  0  0  0
  -60.0390   14.3250   -4.6980 C   0  0  0  0  0  0  0  0  0  0  0  0
  -59.0870   15.3090   -4.9820 C   0  0  0  0  0  0  0  0  0  0  0  0
  -58.5530   15.4500   -6.2660 C   0  0  0  0  0  0  0  0  0  0  0  0
  -58.9800   14.6290   -7.3120 C   0  0  0  0  0  0  0  0  0  0  0  0
  -58.5050   14.7920   -8.4680 O   0  0  0  0  0  0  0  0  0  0  0  0
  -59.9400   13.6390   -7.0730 C   0  0  0  0  0  0  0  0  0  0  0  0
  -60.4130   12.8770   -8.0820 N   0  0  0  0  0  0  0  0  0  0  0  0
  -61.3760   11.9490   -7.8730 C   0  0  0  0  0  0  0  0  0  0  0  0
  -61.8640   11.2270   -8.9690 C   0  0  0  0  0  0  0  0  0  0  0  0
  -62.8920   10.3020   -8.8010 C   0  0  0  0  0  0  0  0  0  0  0  0
  -63.4490   10.1000   -7.5400 C   0  0  0  0  0  0  0  0  0  0  0  0
  -62.9670   10.8050   -6.4340 C   0  0  0  0  0  0  0  0  0  0  0  0
  -61.8960   11.7260   -6.5670 C   0  0  0  0  0  0  0  0  0  0  0  0
  1  2  1  0
  2  3  1  0
  2 16  1  0
  3  4  2  0
  3  9  1  0
  4  5  1  0
  5  6  2  0
  6  7  1  0
  7  8  2  0
  7  9  1  0
  9 10  2  0
 10 11  1  0
 11 12  2  0
 11 16  1  0
 12 13  1  0
 13 14  2  0
 14 15  1  0
 15 16  2  0
M  END
>  <Conformer_ID>  (67) 
67

$$$$
ligand_0
     RDKit          3D

 16 18  0  0  0  0  0  0  0  0999 V2000
  -75.7190   -0.8280  -29.7310 C   0  0  0  0  0  0  0  0  0  0  0  0
  -74.8670    0.3480  -29.4550 N   0  0  0  0  0  0  0  0  0  0  0  0
  -73.6940    0.5380  -30.1560 C   0  0  0  0  0  0  0  0  0  0  0  0
  -73.1150   -0.4420  -30.9920 C   0  0  0  0  0  0  0  0  0  0  0  0
  -71.9510   -0.1630  -31.7140 C   0  0  0  0  0  0  0  0  0  0  0  0
  -71.3210    1.0800  -31.6190 C   0  0  0  0  0  0  0  0  0  0  0  0
  -71.8200    2.0720  -30.7710 C   0  0  0  0  0  0  0  0  0  0  0  0
  -71.2190    3.1760  -30.6790 O   0  0  0  0  0  0  0  0  0  0  0  0
  -72.9750    1.8290  -30.0210 C   0  0  0  0  0  0  0  0  0  0  0  0
  -73.4390    2.7490  -29.1480 N   0  0  0  0  0  0  0  0  0  0  0  0
  -74.5290    2.5070  -28.3820 C   0  0  0  0  0  0  0  0  0  0  0  0
  -74.9300    3.4780  -27.4560 C   0  0  0  0  0  0  0  0  0  0  0  0
  -76.0140    3.2440  -26.6140 C   0  0  0  0  0  0  0  0  0  0  0  0
  -76.6980    2.0320  -26.6800 C   0  0  0  0  0  0  0  0  0  0  0  0
  -76.3170    1.0550  -27.6040 C   0  0  0  0  0  0  0  0  0  0  0  0
  -75.2420    1.2810  -28.5010 C   0  0  0  0  0  0  0  0  0  0  0  0
  1  2  1  0
  2  3  1  0
  2 16  1  0
  3  4  2  0
  3  9  1  0
  4  5  1  0
  5  6  2  0
  6  7  1  0
  7  8  2  0
  7  9  1  0
  9 10  2  0
 10 11  1  0
 11 12  2  0
 11 16  1  0
 12 13  1  0
 13 14  2  0
 14 15  1  0
 15 16  2  0
M  END
>  <Conformer_ID>  (68) 
68

$$$$
ligand_0
     RDKit          3D

 16 18  0  0  0  0  0  0  0  0999 V2000
  -49.3710   20.9330  -23.9690 C   0  0  0  0  0  0  0  0  0  0  0  0
  -47.9990   21.2070  -23.4900 N   0  0  0  0  0  0  0  0  0  0  0  0
  -47.6430   20.9070  -22.1920 C   0  0  0  0  0  0  0  0  0  0  0  0
  -48.5700   20.5460  -21.1890 C   0  0  0  0  0  0  0  0  0  0  0  0
  -48.1330   20.2040  -19.9060 C   0  0  0  0  0  0  0  0  0  0  0  0
  -46.7760   20.2250  -19.5750 C   0  0  0  0  0  0  0  0  0  0  0  0
  -45.8170   20.6210  -20.5100 C   0  0  0  0  0  0  0  0  0  0  0  0
  -44.6010   20.6600  -20.1810 O   0  0  0  0  0  0  0  0  0  0  0  0
  -46.2140   20.9830  -21.8020 C   0  0  0  0  0  0  0  0  0  0  0  0
  -45.3120   21.4300  -22.7030 N   0  0  0  0  0  0  0  0  0  0  0  0
  -45.6890   21.8280  -23.9400 C   0  0  0  0  0  0  0  0  0  0  0  0
  -44.7160   22.3320  -24.8110 C   0  0  0  0  0  0  0  0  0  0  0  0
  -45.0740   22.8010  -26.0730 C   0  0  0  0  0  0  0  0  0  0  0  0
  -46.4090   22.7820  -26.4690 C   0  0  0  0  0  0  0  0  0  0  0  0
  -47.3920   22.2740  -25.6160 C   0  0  0  0  0  0  0  0  0  0  0  0
  -47.0530   21.7550  -24.3410 C   0  0  0  0  0  0  0  0  0  0  0  0
  1  2  1  0
  2  3  1  0
  2 16  1  0
  3  4  2  0
  3  9  1  0
  4  5  1  0
  5  6  2  0
  6  7  1  0
  7  8  2  0
  7  9  1  0
  9 10  2  0
 10 11  1  0
 11 12  2  0
 11 16  1  0
 12 13  1  0
 13 14  2  0
 14 15  1  0
 15 16  2  0
M  END
>  <Conformer_ID>  (69) 
69

$$$$
ligand_0
     RDKit          3D

 16 18  0  0  0  0  0  0  0  0999 V2000
  -31.5240   -6.6220  -24.0500 C   0  0  0  0  0  0  0  0  0  0  0  0
  -30.6330   -5.4810  -23.7500 N   0  0  0  0  0  0  0  0  0  0  0  0
  -30.1660   -4.6770  -24.7680 C   0  0  0  0  0  0  0  0  0  0  0  0
  -30.2990   -4.9910  -26.1380 C   0  0  0  0  0  0  0  0  0  0  0  0
  -29.8480   -4.1040  -27.1200 C   0  0  0  0  0  0  0  0  0  0  0  0
  -29.2390   -2.8940  -26.7760 C   0  0  0  0  0  0  0  0  0  0  0  0
  -29.0350   -2.5510  -25.4370 C   0  0  0  0  0  0  0  0  0  0  0  0
  -28.4590   -1.4670  -25.1510 O   0  0  0  0  0  0  0  0  0  0  0  0
  -29.4620   -3.4170  -24.4240 C   0  0  0  0  0  0  0  0  0  0  0  0
  -29.2180   -3.1350  -23.1260 N   0  0  0  0  0  0  0  0  0  0  0  0
  -29.5830   -3.9870  -22.1400 C   0  0  0  0  0  0  0  0  0  0  0  0
  -29.2560   -3.6650  -20.8170 C   0  0  0  0  0  0  0  0  0  0  0  0
  -29.5680   -4.5420  -19.7810 C   0  0  0  0  0  0  0  0  0  0  0  0
  -30.1970   -5.7540  -20.0590 C   0  0  0  0  0  0  0  0  0  0  0  0
  -30.5390   -6.0860  -21.3720 C   0  0  0  0  0  0  0  0  0  0  0  0
  -30.2690   -5.1970  -22.4430 C   0  0  0  0  0  0  0  0  0  0  0  0
  1  2  1  0
  2  3  1  0
  2 16  1  0
  3  4  2  0
  3  9  1  0
  4  5  1  0
  5  6  2  0
  6  7  1  0
  7  8  2  0
  7  9  1  0
  9 10  2  0
 10 11  1  0
 11 12  2  0
 11 16  1  0
 12 13  1  0
 13 14  2  0
 14 15  1  0
 15 16  2  0
M  END
>  <Conformer_ID>  (70) 
70

$$$$
ligand_0
     RDKit          3D

 16 18  0  0  0  0  0  0  0  0999 V2000
  -68.5990   -2.4770  -46.3990 C   0  0  0  0  0  0  0  0  0  0  0  0
  -67.1400   -2.6580  -46.5550 N   0  0  0  0  0  0  0  0  0  0  0  0
  -66.4140   -1.7970  -47.3520 C   0  0  0  0  0  0  0  0  0  0  0  0
  -67.0010   -0.8580  -48.2270 C   0  0  0  0  0  0  0  0  0  0  0  0
  -66.2030    0.0200  -48.9680 C   0  0  0  0  0  0  0  0  0  0  0  0
  -64.8090   -0.0170  -48.8770 C   0  0  0  0  0  0  0  0  0  0  0  0
  -64.1710   -0.9570  -48.0640 C   0  0  0  0  0  0  0  0  0  0  0  0
  -62.9110   -0.9910  -48.0190 O   0  0  0  0  0  0  0  0  0  0  0  0
  -64.9320   -1.8620  -47.3160 C   0  0  0  0  0  0  0  0  0  0  0  0
  -64.3350   -2.8200  -46.5750 N   0  0  0  0  0  0  0  0  0  0  0  0
  -65.0600   -3.7310  -45.8840 C   0  0  0  0  0  0  0  0  0  0  0  0
  -64.3850   -4.7320  -45.1770 C   0  0  0  0  0  0  0  0  0  0  0  0
  -65.0980   -5.7180  -44.4980 C   0  0  0  0  0  0  0  0  0  0  0  0
  -66.4900   -5.7190  -44.5320 C   0  0  0  0  0  0  0  0  0  0  0  0
  -67.1800   -4.7220  -45.2260 C   0  0  0  0  0  0  0  0  0  0  0  0
  -66.4830   -3.6830  -45.8940 C   0  0  0  0  0  0  0  0  0  0  0  0
  1  2  1  0
  2  3  1  0
  2 16  1  0
  3  4  2  0
  3  9  1  0
  4  5  1  0
  5  6  2  0
  6  7  1  0
  7  8  2  0
  7  9  1  0
  9 10  2  0
 10 11  1  0
 11 12  2  0
 11 16  1  0
 12 13  1  0
 13 14  2  0
 14 15  1  0
 15 16  2  0
M  END
>  <Conformer_ID>  (71) 
71

$$$$
ligand_0
     RDKit          3D

 16 18  0  0  0  0  0  0  0  0999 V2000
  -62.0840   -6.5900  -31.5410 C   0  0  0  0  0  0  0  0  0  0  0  0
  -61.2110   -5.4610  -31.1510 N   0  0  0  0  0  0  0  0  0  0  0  0
  -60.5910   -5.4550  -29.9190 C   0  0  0  0  0  0  0  0  0  0  0  0
  -60.9000   -6.3620  -28.8830 C   0  0  0  0  0  0  0  0  0  0  0  0
  -60.1940   -6.3320  -27.6760 C   0  0  0  0  0  0  0  0  0  0  0  0
  -59.1790   -5.3970  -27.4550 C   0  0  0  0  0  0  0  0  0  0  0  0
  -58.8620   -4.4430  -28.4250 C   0  0  0  0  0  0  0  0  0  0  0  0
  -57.9620   -3.5910  -28.1940 O   0  0  0  0  0  0  0  0  0  0  0  0
  -59.5530   -4.4310  -29.6420 C   0  0  0  0  0  0  0  0  0  0  0  0
  -59.3070   -3.4800  -30.5670 N   0  0  0  0  0  0  0  0  0  0  0  0
  -60.0010   -3.4290  -31.7280 C   0  0  0  0  0  0  0  0  0  0  0  0
  -59.7390   -2.3870  -32.6250 C   0  0  0  0  0  0  0  0  0  0  0  0
  -60.4700   -2.2720  -33.8050 C   0  0  0  0  0  0  0  0  0  0  0  0
  -61.4780   -3.1880  -34.0920 C   0  0  0  0  0  0  0  0  0  0  0  0
  -61.7480   -4.2400  -33.2120 C   0  0  0  0  0  0  0  0  0  0  0  0
  -60.9950   -4.4060  -32.0220 C   0  0  0  0  0  0  0  0  0  0  0  0
  1  2  1  0
  2  3  1  0
  2 16  1  0
  3  4  2  0
  3  9  1  0
  4  5  1  0
  5  6  2  0
  6  7  1  0
  7  8  2  0
  7  9  1  0
  9 10  2  0
 10 11  1  0
 11 12  2  0
 11 16  1  0
 12 13  1  0
 13 14  2  0
 14 15  1  0
 15 16  2  0
M  END
>  <Conformer_ID>  (72) 
72

$$$$
ligand_0
     RDKit          3D

 16 18  0  0  0  0  0  0  0  0999 V2000
  -49.7850   20.6640  -24.4200 C   0  0  0  0  0  0  0  0  0  0  0  0
  -49.1780   21.7290  -23.5920 N   0  0  0  0  0  0  0  0  0  0  0  0
  -49.8510   22.2250  -22.4950 C   0  0  0  0  0  0  0  0  0  0  0  0
  -51.2050   21.9420  -22.2140 C   0  0  0  0  0  0  0  0  0  0  0  0
  -51.8100   22.4370  -21.0540 C   0  0  0  0  0  0  0  0  0  0  0  0
  -51.1010   23.2360  -20.1540 C   0  0  0  0  0  0  0  0  0  0  0  0
  -49.7730   23.5900  -20.4040 C   0  0  0  0  0  0  0  0  0  0  0  0
  -49.1610   24.3350  -19.5910 O   0  0  0  0  0  0  0  0  0  0  0  0
  -49.1340   23.1250  -21.5580 C   0  0  0  0  0  0  0  0  0  0  0  0
  -47.8730   23.5060  -21.8520 N   0  0  0  0  0  0  0  0  0  0  0  0
  -47.2600   23.1020  -22.9890 C   0  0  0  0  0  0  0  0  0  0  0  0
  -45.9710   23.5740  -23.2650 C   0  0  0  0  0  0  0  0  0  0  0  0
  -45.3310   23.2220  -24.4510 C   0  0  0  0  0  0  0  0  0  0  0  0
  -45.9780   22.4080  -25.3770 C   0  0  0  0  0  0  0  0  0  0  0  0
  -47.2610   21.9200  -25.1140 C   0  0  0  0  0  0  0  0  0  0  0  0
  -47.9230   22.2300  -23.8990 C   0  0  0  0  0  0  0  0  0  0  0  0
  1  2  1  0
  2  3  1  0
  2 16  1  0
  3  4  2  0
  3  9  1  0
  4  5  1  0
  5  6  2  0
  6  7  1  0
  7  8  2  0
  7  9  1  0
  9 10  2  0
 10 11  1  0
 11 12  2  0
 11 16  1  0
 12 13  1  0
 13 14  2  0
 14 15  1  0
 15 16  2  0
M  END
>  <Conformer_ID>  (73) 
73

$$$$
ligand_0
     RDKit          3D

 16 18  0  0  0  0  0  0  0  0999 V2000
  -49.8960   20.4410  -24.9390 C   0  0  0  0  0  0  0  0  0  0  0  0
  -49.1230   21.4100  -24.1320 N   0  0  0  0  0  0  0  0  0  0  0  0
  -48.0970   22.1320  -24.7060 C   0  0  0  0  0  0  0  0  0  0  0  0
  -47.5700   21.8580  -25.9870 C   0  0  0  0  0  0  0  0  0  0  0  0
  -46.5640   22.6650  -26.5300 C   0  0  0  0  0  0  0  0  0  0  0  0
  -46.0440   23.7490  -25.8180 C   0  0  0  0  0  0  0  0  0  0  0  0
  -46.4920   24.0390  -24.5270 C   0  0  0  0  0  0  0  0  0  0  0  0
  -45.9890   25.0040  -23.8930 O   0  0  0  0  0  0  0  0  0  0  0  0
  -47.4880   23.2490  -23.9430 C   0  0  0  0  0  0  0  0  0  0  0  0
  -47.8910   23.4710  -22.6740 N   0  0  0  0  0  0  0  0  0  0  0  0
  -48.8200   22.6850  -22.0800 C   0  0  0  0  0  0  0  0  0  0  0  0
  -49.1570   22.9320  -20.7450 C   0  0  0  0  0  0  0  0  0  0  0  0
  -50.0700   22.1110  -20.0850 C   0  0  0  0  0  0  0  0  0  0  0  0
  -50.6410   21.0290  -20.7500 C   0  0  0  0  0  0  0  0  0  0  0  0
  -50.3220   20.7730  -22.0860 C   0  0  0  0  0  0  0  0  0  0  0  0
  -49.4270   21.6140  -22.7960 C   0  0  0  0  0  0  0  0  0  0  0  0
  1  2  1  0
  2  3  1  0
  2 16  1  0
  3  4  2  0
  3  9  1  0
  4  5  1  0
  5  6  2  0
  6  7  1  0
  7  8  2  0
  7  9  1  0
  9 10  2  0
 10 11  1  0
 11 12  2  0
 11 16  1  0
 12 13  1  0
 13 14  2  0
 14 15  1  0
 15 16  2  0
M  END
>  <Conformer_ID>  (74) 
74

$$$$
ligand_0
     RDKit          3D

 16 18  0  0  0  0  0  0  0  0999 V2000
  -45.9070   21.3340  -22.2750 C   0  0  0  0  0  0  0  0  0  0  0  0
  -46.8980   20.8880  -21.2720 N   0  0  0  0  0  0  0  0  0  0  0  0
  -48.2470   20.9460  -21.5540 C   0  0  0  0  0  0  0  0  0  0  0  0
  -48.7850   21.6170  -22.6740 C   0  0  0  0  0  0  0  0  0  0  0  0
  -50.1600   21.5920  -22.9270 C   0  0  0  0  0  0  0  0  0  0  0  0
  -51.0390   20.9200  -22.0740 C   0  0  0  0  0  0  0  0  0  0  0  0
  -50.5720   20.2790  -20.9240 C   0  0  0  0  0  0  0  0  0  0  0  0
  -51.3870   19.7030  -20.1540 O   0  0  0  0  0  0  0  0  0  0  0  0
  -49.2040   20.2920  -20.6280 C   0  0  0  0  0  0  0  0  0  0  0  0
  -48.7380   19.7340  -19.4900 N   0  0  0  0  0  0  0  0  0  0  0  0
  -47.4240   19.7810  -19.1690 C   0  0  0  0  0  0  0  0  0  0  0  0
  -47.0090   19.2330  -17.9500 C   0  0  0  0  0  0  0  0  0  0  0  0
  -45.6730   19.3090  -17.5610 C   0  0  0  0  0  0  0  0  0  0  0  0
  -44.7450   19.9460  -18.3810 C   0  0  0  0  0  0  0  0  0  0  0  0
  -45.1400   20.4900  -19.6060 C   0  0  0  0  0  0  0  0  0  0  0  0
  -46.4840   20.3940  -20.0460 C   0  0  0  0  0  0  0  0  0  0  0  0
  1  2  1  0
  2  3  1  0
  2 16  1  0
  3  4  2  0
  3  9  1  0
  4  5  1  0
  5  6  2  0
  6  7  1  0
  7  8  2  0
  7  9  1  0
  9 10  2  0
 10 11  1  0
 11 12  2  0
 11 16  1  0
 12 13  1  0
 13 14  2  0
 14 15  1  0
 15 16  2  0
M  END
>  <Conformer_ID>  (75) 
75

$$$$
ligand_0
     RDKit          3D

 16 18  0  0  0  0  0  0  0  0999 V2000
  -36.5470    1.0260  -42.3180 C   0  0  0  0  0  0  0  0  0  0  0  0
  -37.4230    1.6270  -41.2890 N   0  0  0  0  0  0  0  0  0  0  0  0
  -37.9110    0.8570  -40.2540 C   0  0  0  0  0  0  0  0  0  0  0  0
  -37.8120   -0.5510  -40.2130 C   0  0  0  0  0  0  0  0  0  0  0  0
  -38.2820   -1.2660  -39.1070 C   0  0  0  0  0  0  0  0  0  0  0  0
  -38.8750   -0.6130  -38.0230 C   0  0  0  0  0  0  0  0  0  0  0  0
  -39.0440    0.7740  -38.0280 C   0  0  0  0  0  0  0  0  0  0  0  0
  -39.6060    1.3390  -37.0520 O   0  0  0  0  0  0  0  0  0  0  0  0
  -38.5990    1.5240  -39.1220 C   0  0  0  0  0  0  0  0  0  0  0  0
  -38.8090    2.8570  -39.1770 N   0  0  0  0  0  0  0  0  0  0  0  0
  -38.4250    3.5880  -40.2500 C   0  0  0  0  0  0  0  0  0  0  0  0
  -38.7190    4.9560  -40.2720 C   0  0  0  0  0  0  0  0  0  0  0  0
  -38.3870    5.7300  -41.3830 C   0  0  0  0  0  0  0  0  0  0  0  0
  -37.7720    5.1390  -42.4840 C   0  0  0  0  0  0  0  0  0  0  0  0
  -37.4640    3.7770  -42.4750 C   0  0  0  0  0  0  0  0  0  0  0  0
  -37.7540    2.9720  -41.3440 C   0  0  0  0  0  0  0  0  0  0  0  0
  1  2  1  0
  2  3  1  0
  2 16  1  0
  3  4  2  0
  3  9  1  0
  4  5  1  0
  5  6  2  0
  6  7  1  0
  7  8  2  0
  7  9  1  0
  9 10  2  0
 10 11  1  0
 11 12  2  0
 11 16  1  0
 12 13  1  0
 13 14  2  0
 14 15  1  0
 15 16  2  0
M  END
>  <Conformer_ID>  (76) 
76

$$$$
ligand_0
     RDKit          3D

 16 18  0  0  0  0  0  0  0  0999 V2000
  -50.1630   21.2340  -23.0830 C   0  0  0  0  0  0  0  0  0  0  0  0
  -48.7240   21.1330  -22.7580 N   0  0  0  0  0  0  0  0  0  0  0  0
  -47.7740   21.5190  -23.6800 C   0  0  0  0  0  0  0  0  0  0  0  0
  -48.0670   21.8120  -25.0300 C   0  0  0  0  0  0  0  0  0  0  0  0
  -47.0620   22.2490  -25.8980 C   0  0  0  0  0  0  0  0  0  0  0  0
  -45.7420   22.3920  -25.4620 C   0  0  0  0  0  0  0  0  0  0  0  0
  -45.3830   22.0710  -24.1510 C   0  0  0  0  0  0  0  0  0  0  0  0
  -44.1810   22.1800  -23.7880 O   0  0  0  0  0  0  0  0  0  0  0  0
  -46.3560   21.6180  -23.2540 C   0  0  0  0  0  0  0  0  0  0  0  0
  -46.0210   21.2420  -22.0020 N   0  0  0  0  0  0  0  0  0  0  0  0
  -46.9450   20.7580  -21.1390 C   0  0  0  0  0  0  0  0  0  0  0  0
  -46.5270   20.3340  -19.8720 C   0  0  0  0  0  0  0  0  0  0  0  0
  -47.4400   19.7810  -18.9770 C   0  0  0  0  0  0  0  0  0  0  0  0
  -48.7760   19.6350  -19.3460 C   0  0  0  0  0  0  0  0  0  0  0  0
  -49.2120   20.0620  -20.6030 C   0  0  0  0  0  0  0  0  0  0  0  0
  -48.3130   20.6630  -21.5210 C   0  0  0  0  0  0  0  0  0  0  0  0
  1  2  1  0
  2  3  1  0
  2 16  1  0
  3  4  2  0
  3  9  1  0
  4  5  1  0
  5  6  2  0
  6  7  1  0
  7  8  2  0
  7  9  1  0
  9 10  2  0
 10 11  1  0
 11 12  2  0
 11 16  1  0
 12 13  1  0
 13 14  2  0
 14 15  1  0
 15 16  2  0
M  END
>  <Conformer_ID>  (77) 
77

$$$$
ligand_0
     RDKit          3D

 16 18  0  0  0  0  0  0  0  0999 V2000
  -49.9510   20.8900  -23.8200 C   0  0  0  0  0  0  0  0  0  0  0  0
  -49.3700   21.2970  -22.5230 N   0  0  0  0  0  0  0  0  0  0  0  0
  -50.1870   21.7350  -21.5020 C   0  0  0  0  0  0  0  0  0  0  0  0
  -51.5560   22.0380  -21.6700 C   0  0  0  0  0  0  0  0  0  0  0  0
  -52.3380   22.4280  -20.5780 C   0  0  0  0  0  0  0  0  0  0  0  0
  -51.7880   22.5430  -19.2990 C   0  0  0  0  0  0  0  0  0  0  0  0
  -50.4290   22.3030  -19.0800 C   0  0  0  0  0  0  0  0  0  0  0  0
  -49.9480   22.4410  -17.9230 O   0  0  0  0  0  0  0  0  0  0  0  0
  -49.6090   21.9240  -20.1480 C   0  0  0  0  0  0  0  0  0  0  0  0
  -48.2820   21.7480  -19.9730 N   0  0  0  0  0  0  0  0  0  0  0  0
  -47.4700   21.4270  -21.0070 C   0  0  0  0  0  0  0  0  0  0  0  0
  -46.0940   21.3120  -20.7730 C   0  0  0  0  0  0  0  0  0  0  0  0
  -45.2220   21.0350  -21.8230 C   0  0  0  0  0  0  0  0  0  0  0  0
  -45.7150   20.8850  -23.1170 C   0  0  0  0  0  0  0  0  0  0  0  0
  -47.0850   20.9880  -23.3670 C   0  0  0  0  0  0  0  0  0  0  0  0
  -48.0020   21.2300  -22.3130 C   0  0  0  0  0  0  0  0  0  0  0  0
  1  2  1  0
  2  3  1  0
  2 16  1  0
  3  4  2  0
  3  9  1  0
  4  5  1  0
  5  6  2  0
  6  7  1  0
  7  8  2  0
  7  9  1  0
  9 10  2  0
 10 11  1  0
 11 12  2  0
 11 16  1  0
 12 13  1  0
 13 14  2  0
 14 15  1  0
 15 16  2  0
M  END
>  <Conformer_ID>  (78) 
78

$$$$
ligand_0
     RDKit          3D

 16 18  0  0  0  0  0  0  0  0999 V2000
  -71.5060   19.9010  -14.7930 C   0  0  0  0  0  0  0  0  0  0  0  0
  -70.1940   19.2210  -14.8400 N   0  0  0  0  0  0  0  0  0  0  0  0
  -69.6970   18.7510  -16.0380 C   0  0  0  0  0  0  0  0  0  0  0  0
  -70.4590   18.6740  -17.2250 C   0  0  0  0  0  0  0  0  0  0  0  0
  -69.8750   18.2360  -18.4180 C   0  0  0  0  0  0  0  0  0  0  0  0
  -68.5340   17.8480  -18.4660 C   0  0  0  0  0  0  0  0  0  0  0  0
  -67.7440   17.8560  -17.3140 C   0  0  0  0  0  0  0  0  0  0  0  0
  -66.5440   17.4750  -17.3760 O   0  0  0  0  0  0  0  0  0  0  0  0
  -68.2930   18.2760  -16.0980 C   0  0  0  0  0  0  0  0  0  0  0  0
  -67.5670   18.2320  -14.9600 N   0  0  0  0  0  0  0  0  0  0  0  0
  -68.1010   18.5900  -13.7690 C   0  0  0  0  0  0  0  0  0  0  0  0
  -67.3150   18.4720  -12.6160 C   0  0  0  0  0  0  0  0  0  0  0  0
  -67.8470   18.7810  -11.3660 C   0  0  0  0  0  0  0  0  0  0  0  0
  -69.1720   19.1970  -11.2570 C   0  0  0  0  0  0  0  0  0  0  0  0
  -69.9680   19.3300  -12.3980 C   0  0  0  0  0  0  0  0  0  0  0  0
  -69.4420   19.0600  -13.6870 C   0  0  0  0  0  0  0  0  0  0  0  0
  1  2  1  0
  2  3  1  0
  2 16  1  0
  3  4  2  0
  3  9  1  0
  4  5  1  0
  5  6  2  0
  6  7  1  0
  7  8  2  0
  7  9  1  0
  9 10  2  0
 10 11  1  0
 11 12  2  0
 11 16  1  0
 12 13  1  0
 13 14  2  0
 14 15  1  0
 15 16  2  0
M  END
>  <Conformer_ID>  (79) 
79

$$$$
ligand_0
     RDKit          3D

 16 18  0  0  0  0  0  0  0  0999 V2000
  -55.8750   -3.3790  -46.9810 C   0  0  0  0  0  0  0  0  0  0  0  0
  -55.0950   -2.1610  -46.6750 N   0  0  0  0  0  0  0  0  0  0  0  0
  -54.9050   -1.1960  -47.6410 C   0  0  0  0  0  0  0  0  0  0  0  0
  -55.2230   -1.3800  -49.0050 C   0  0  0  0  0  0  0  0  0  0  0  0
  -55.0520   -0.3380  -49.9220 C   0  0  0  0  0  0  0  0  0  0  0  0
  -54.5490    0.9030  -49.5220 C   0  0  0  0  0  0  0  0  0  0  0  0
  -54.1720    1.1280  -48.1960 C   0  0  0  0  0  0  0  0  0  0  0  0
  -53.6940    2.2460  -47.8630 O   0  0  0  0  0  0  0  0  0  0  0  0
  -54.3150    0.1080  -47.2490 C   0  0  0  0  0  0  0  0  0  0  0  0
  -53.8980    0.2820  -45.9770 N   0  0  0  0  0  0  0  0  0  0  0  0
  -53.9860   -0.7120  -45.0630 C   0  0  0  0  0  0  0  0  0  0  0  0
  -53.4880   -0.4890  -43.7740 C   0  0  0  0  0  0  0  0  0  0  0  0
  -53.5140   -1.5060  -42.8220 C   0  0  0  0  0  0  0  0  0  0  0  0
  -54.0260   -2.7580  -43.1550 C   0  0  0  0  0  0  0  0  0  0  0  0
  -54.5360   -2.9960  -44.4340 C   0  0  0  0  0  0  0  0  0  0  0  0
  -54.5590   -1.9680  -45.4120 C   0  0  0  0  0  0  0  0  0  0  0  0
  1  2  1  0
  2  3  1  0
  2 16  1  0
  3  4  2  0
  3  9  1  0
  4  5  1  0
  5  6  2  0
  6  7  1  0
  7  8  2  0
  7  9  1  0
  9 10  2  0
 10 11  1  0
 11 12  2  0
 11 16  1  0
 12 13  1  0
 13 14  2  0
 14 15  1  0
 15 16  2  0
M  END
>  <Conformer_ID>  (80) 
80

$$$$
ligand_0
     RDKit          3D

 16 18  0  0  0  0  0  0  0  0999 V2000
  -30.9520   -6.5360  -24.5040 C   0  0  0  0  0  0  0  0  0  0  0  0
  -30.3290   -5.2540  -24.1100 N   0  0  0  0  0  0  0  0  0  0  0  0
  -30.1000   -4.9720  -22.7790 C   0  0  0  0  0  0  0  0  0  0  0  0
  -30.6220   -5.7400  -21.7150 C   0  0  0  0  0  0  0  0  0  0  0  0
  -30.3060   -5.4270  -20.3900 C   0  0  0  0  0  0  0  0  0  0  0  0
  -29.4820   -4.3420  -20.0800 C   0  0  0  0  0  0  0  0  0  0  0  0
  -28.9760   -3.5170  -21.0870 C   0  0  0  0  0  0  0  0  0  0  0  0
  -28.2570   -2.5270  -20.7820 O   0  0  0  0  0  0  0  0  0  0  0  0
  -29.2780   -3.7880  -22.4260 C   0  0  0  0  0  0  0  0  0  0  0  0
  -28.8520   -2.9690  -23.4110 N   0  0  0  0  0  0  0  0  0  0  0  0
  -29.1780   -3.1930  -24.7050 C   0  0  0  0  0  0  0  0  0  0  0  0
  -28.7520   -2.2780  -25.6750 C   0  0  0  0  0  0  0  0  0  0  0  0
  -29.1120   -2.4480  -27.0100 C   0  0  0  0  0  0  0  0  0  0  0  0
  -29.9120   -3.5250  -27.3840 C   0  0  0  0  0  0  0  0  0  0  0  0
  -30.3380   -4.4530  -26.4310 C   0  0  0  0  0  0  0  0  0  0  0  0
  -29.9560   -4.3280  -25.0710 C   0  0  0  0  0  0  0  0  0  0  0  0
  1  2  1  0
  2  3  1  0
  2 16  1  0
  3  4  2  0
  3  9  1  0
  4  5  1  0
  5  6  2  0
  6  7  1  0
  7  8  2  0
  7  9  1  0
  9 10  2  0
 10 11  1  0
 11 12  2  0
 11 16  1  0
 12 13  1  0
 13 14  2  0
 14 15  1  0
 15 16  2  0
M  END
>  <Conformer_ID>  (81) 
81

$$$$
ligand_0
     RDKit          3D

 16 18  0  0  0  0  0  0  0  0999 V2000
  -46.1240   20.0330  -19.3670 C   0  0  0  0  0  0  0  0  0  0  0  0
  -47.1600   20.4400  -20.3400 N   0  0  0  0  0  0  0  0  0  0  0  0
  -46.7990   20.9020  -21.5880 C   0  0  0  0  0  0  0  0  0  0  0  0
  -45.4730   21.2300  -21.9480 C   0  0  0  0  0  0  0  0  0  0  0  0
  -45.1700   21.6430  -23.2490 C   0  0  0  0  0  0  0  0  0  0  0  0
  -46.1670   21.7590  -24.2210 C   0  0  0  0  0  0  0  0  0  0  0  0
  -47.5030   21.4950  -23.9110 C   0  0  0  0  0  0  0  0  0  0  0  0
  -48.3900   21.6340  -24.7970 O   0  0  0  0  0  0  0  0  0  0  0  0
  -47.8510   21.0910  -22.6170 C   0  0  0  0  0  0  0  0  0  0  0  0
  -49.1420   20.8920  -22.2790 N   0  0  0  0  0  0  0  0  0  0  0  0
  -49.4960   20.5470  -21.0180 C   0  0  0  0  0  0  0  0  0  0  0  0
  -50.8550   20.4070  -20.7150 C   0  0  0  0  0  0  0  0  0  0  0  0
  -51.2600   20.1050  -19.4160 C   0  0  0  0  0  0  0  0  0  0  0  0
  -50.3100   19.9540  -18.4080 C   0  0  0  0  0  0  0  0  0  0  0  0
  -48.9490   20.0800  -18.6960 C   0  0  0  0  0  0  0  0  0  0  0  0
  -48.5050   20.3490  -20.0160 C   0  0  0  0  0  0  0  0  0  0  0  0
  1  2  1  0
  2  3  1  0
  2 16  1  0
  3  4  2  0
  3  9  1  0
  4  5  1  0
  5  6  2  0
  6  7  1  0
  7  8  2  0
  7  9  1  0
  9 10  2  0
 10 11  1  0
 11 12  2  0
 11 16  1  0
 12 13  1  0
 13 14  2  0
 14 15  1  0
 15 16  2  0
M  END
>  <Conformer_ID>  (82) 
82

$$$$
ligand_0
     RDKit          3D

 16 18  0  0  0  0  0  0  0  0999 V2000
  -50.2410   -1.9800  -44.7140 C   0  0  0  0  0  0  0  0  0  0  0  0
  -51.4220   -2.6600  -44.1410 N   0  0  0  0  0  0  0  0  0  0  0  0
  -52.6440   -2.0210  -44.1060 C   0  0  0  0  0  0  0  0  0  0  0  0
  -52.8180   -0.6490  -44.3880 C   0  0  0  0  0  0  0  0  0  0  0  0
  -54.0940   -0.0770  -44.3860 C   0  0  0  0  0  0  0  0  0  0  0  0
  -55.2270   -0.8400  -44.0900 C   0  0  0  0  0  0  0  0  0  0  0  0
  -55.1120   -2.1910  -43.7560 C   0  0  0  0  0  0  0  0  0  0  0  0
  -56.1450   -2.8530  -43.4650 O   0  0  0  0  0  0  0  0  0  0  0  0
  -53.8520   -2.7980  -43.7340 C   0  0  0  0  0  0  0  0  0  0  0  0
  -53.7110   -4.0860  -43.3530 N   0  0  0  0  0  0  0  0  0  0  0  0
  -52.4930   -4.6710  -43.2820 C   0  0  0  0  0  0  0  0  0  0  0  0
  -52.4060   -5.9930  -42.8280 C   0  0  0  0  0  0  0  0  0  0  0  0
  -51.1650   -6.6110  -42.6920 C   0  0  0  0  0  0  0  0  0  0  0  0
  -50.0000   -5.9090  -42.9950 C   0  0  0  0  0  0  0  0  0  0  0  0
  -50.0690   -4.5930  -43.4590 C   0  0  0  0  0  0  0  0  0  0  0  0
  -51.3200   -3.9500  -43.6450 C   0  0  0  0  0  0  0  0  0  0  0  0
  1  2  1  0
  2  3  1  0
  2 16  1  0
  3  4  2  0
  3  9  1  0
  4  5  1  0
  5  6  2  0
  6  7  1  0
  7  8  2  0
  7  9  1  0
  9 10  2  0
 10 11  1  0
 11 12  2  0
 11 16  1  0
 12 13  1  0
 13 14  2  0
 14 15  1  0
 15 16  2  0
M  END
>  <Conformer_ID>  (83) 
83

$$$$
ligand_0
     RDKit          3D

 16 18  0  0  0  0  0  0  0  0999 V2000
  -69.8540   10.7690  -56.0090 C   0  0  0  0  0  0  0  0  0  0  0  0
  -69.0500   10.2060  -54.9030 N   0  0  0  0  0  0  0  0  0  0  0  0
  -69.0870   10.7850  -53.6510 C   0  0  0  0  0  0  0  0  0  0  0  0
  -69.6830   12.0370  -53.3860 C   0  0  0  0  0  0  0  0  0  0  0  0
  -69.7300   12.5400  -52.0820 C   0  0  0  0  0  0  0  0  0  0  0  0
  -69.1780   11.8310  -51.0120 C   0  0  0  0  0  0  0  0  0  0  0  0
  -68.5330   10.6090  -51.2210 C   0  0  0  0  0  0  0  0  0  0  0  0
  -68.0170   10.0000  -50.2450 O   0  0  0  0  0  0  0  0  0  0  0  0
  -68.4530   10.0770  -52.5120 C   0  0  0  0  0  0  0  0  0  0  0  0
  -67.7790    8.9300  -52.7470 N   0  0  0  0  0  0  0  0  0  0  0  0
  -67.6530    8.4290  -53.9980 C   0  0  0  0  0  0  0  0  0  0  0  0
  -66.8970    7.2660  -54.1840 C   0  0  0  0  0  0  0  0  0  0  0  0
  -66.7020    6.7500  -55.4640 C   0  0  0  0  0  0  0  0  0  0  0  0
  -67.2490    7.4010  -56.5680 C   0  0  0  0  0  0  0  0  0  0  0  0
  -68.0140    8.5580  -56.3990 C   0  0  0  0  0  0  0  0  0  0  0  0
  -68.2620    9.0840  -55.1060 C   0  0  0  0  0  0  0  0  0  0  0  0
  1  2  1  0
  2  3  1  0
  2 16  1  0
  3  4  2  0
  3  9  1  0
  4  5  1  0
  5  6  2  0
  6  7  1  0
  7  8  2  0
  7  9  1  0
  9 10  2  0
 10 11  1  0
 11 12  2  0
 11 16  1  0
 12 13  1  0
 13 14  2  0
 14 15  1  0
 15 16  2  0
M  END
>  <Conformer_ID>  (84) 
84

$$$$
ligand_0
     RDKit          3D

 16 18  0  0  0  0  0  0  0  0999 V2000
  -54.6450   -5.5420  -43.6620 C   0  0  0  0  0  0  0  0  0  0  0  0
  -54.1010   -4.1670  -43.6630 N   0  0  0  0  0  0  0  0  0  0  0  0
  -54.9520   -3.0830  -43.6060 C   0  0  0  0  0  0  0  0  0  0  0  0
  -56.3520   -3.1780  -43.7660 C   0  0  0  0  0  0  0  0  0  0  0  0
  -57.1610   -2.0440  -43.6440 C   0  0  0  0  0  0  0  0  0  0  0  0
  -56.6090   -0.7880  -43.3780 C   0  0  0  0  0  0  0  0  0  0  0  0
  -55.2270   -0.6240  -43.2580 C   0  0  0  0  0  0  0  0  0  0  0  0
  -54.7490    0.5230  -43.0460 O   0  0  0  0  0  0  0  0  0  0  0  0
  -54.3820   -1.7320  -43.3860 C   0  0  0  0  0  0  0  0  0  0  0  0
  -53.0400   -1.5870  -43.3370 N   0  0  0  0  0  0  0  0  0  0  0  0
  -52.2100   -2.6420  -43.5060 C   0  0  0  0  0  0  0  0  0  0  0  0
  -50.8280   -2.4200  -43.4990 C   0  0  0  0  0  0  0  0  0  0  0  0
  -49.9440   -3.4740  -43.7220 C   0  0  0  0  0  0  0  0  0  0  0  0
  -50.4340   -4.7540  -43.9700 C   0  0  0  0  0  0  0  0  0  0  0  0
  -51.8100   -4.9950  -43.9710 C   0  0  0  0  0  0  0  0  0  0  0  0
  -52.7330   -3.9510  -43.7090 C   0  0  0  0  0  0  0  0  0  0  0  0
  1  2  1  0
  2  3  1  0
  2 16  1  0
  3  4  2  0
  3  9  1  0
  4  5  1  0
  5  6  2  0
  6  7  1  0
  7  8  2  0
  7  9  1  0
  9 10  2  0
 10 11  1  0
 11 12  2  0
 11 16  1  0
 12 13  1  0
 13 14  2  0
 14 15  1  0
 15 16  2  0
M  END
>  <Conformer_ID>  (85) 
85

$$$$
ligand_0
     RDKit          3D

 16 18  0  0  0  0  0  0  0  0999 V2000
  -78.5540    8.9600  -36.9120 C   0  0  0  0  0  0  0  0  0  0  0  0
  -78.6570   10.3760  -37.3240 N   0  0  0  0  0  0  0  0  0  0  0  0
  -79.3530   11.2780  -36.5470 C   0  0  0  0  0  0  0  0  0  0  0  0
  -80.1820   10.9040  -35.4660 C   0  0  0  0  0  0  0  0  0  0  0  0
  -80.8180   11.8760  -34.6870 C   0  0  0  0  0  0  0  0  0  0  0  0
  -80.6660   13.2370  -34.9640 C   0  0  0  0  0  0  0  0  0  0  0  0
  -79.8980   13.6650  -36.0490 C   0  0  0  0  0  0  0  0  0  0  0  0
  -79.7980   14.8970  -36.2960 O   0  0  0  0  0  0  0  0  0  0  0  0
  -79.2550   12.7250  -36.8610 C   0  0  0  0  0  0  0  0  0  0  0  0
  -78.5610   13.1130  -37.9520 N   0  0  0  0  0  0  0  0  0  0  0  0
  -77.9740   12.2100  -38.7720 C   0  0  0  0  0  0  0  0  0  0  0  0
  -77.3130   12.6700  -39.9170 C   0  0  0  0  0  0  0  0  0  0  0  0
  -76.7430   11.7680  -40.8120 C   0  0  0  0  0  0  0  0  0  0  0  0
  -76.8410   10.3980  -40.5780 C   0  0  0  0  0  0  0  0  0  0  0  0
  -77.4880    9.9220  -39.4350 C   0  0  0  0  0  0  0  0  0  0  0  0
  -78.0440   10.8170  -38.4860 C   0  0  0  0  0  0  0  0  0  0  0  0
  1  2  1  0
  2  3  1  0
  2 16  1  0
  3  4  2  0
  3  9  1  0
  4  5  1  0
  5  6  2  0
  6  7  1  0
  7  8  2  0
  7  9  1  0
  9 10  2  0
 10 11  1  0
 11 12  2  0
 11 16  1  0
 12 13  1  0
 13 14  2  0
 14 15  1  0
 15 16  2  0
M  END
>  <Conformer_ID>  (86) 
86

$$$$
ligand_0
     RDKit          3D

 16 18  0  0  0  0  0  0  0  0999 V2000
  -69.7260   21.9710  -19.6360 C   0  0  0  0  0  0  0  0  0  0  0  0
  -69.7260   20.5160  -19.3760 N   0  0  0  0  0  0  0  0  0  0  0  0
  -68.7410   19.9500  -18.5930 C   0  0  0  0  0  0  0  0  0  0  0  0
  -67.5770   20.6350  -18.1830 C   0  0  0  0  0  0  0  0  0  0  0  0
  -66.6440   20.0150  -17.3460 C   0  0  0  0  0  0  0  0  0  0  0  0
  -66.8270   18.7010  -16.9070 C   0  0  0  0  0  0  0  0  0  0  0  0
  -67.9350   17.9570  -17.3190 C   0  0  0  0  0  0  0  0  0  0  0  0
  -68.0660   16.7640  -16.9320 O   0  0  0  0  0  0  0  0  0  0  0  0
  -68.8860   18.5360  -18.1660 C   0  0  0  0  0  0  0  0  0  0  0  0
  -69.9300   17.8160  -18.6280 N   0  0  0  0  0  0  0  0  0  0  0  0
  -70.8310   18.3490  -19.4860 C   0  0  0  0  0  0  0  0  0  0  0  0
  -71.8620   17.5360  -19.9720 C   0  0  0  0  0  0  0  0  0  0  0  0
  -72.7760   18.0360  -20.8970 C   0  0  0  0  0  0  0  0  0  0  0  0
  -72.6590   19.3460  -21.3540 C   0  0  0  0  0  0  0  0  0  0  0  0
  -71.6420   20.1740  -20.8730 C   0  0  0  0  0  0  0  0  0  0  0  0
  -70.7200   19.7060  -19.9020 C   0  0  0  0  0  0  0  0  0  0  0  0
  1  2  1  0
  2  3  1  0
  2 16  1  0
  3  4  2  0
  3  9  1  0
  4  5  1  0
  5  6  2  0
  6  7  1  0
  7  8  2  0
  7  9  1  0
  9 10  2  0
 10 11  1  0
 11 12  2  0
 11 16  1  0
 12 13  1  0
 13 14  2  0
 14 15  1  0
 15 16  2  0
M  END
>  <Conformer_ID>  (87) 
87

$$$$
ligand_0
     RDKit          3D

 16 18  0  0  0  0  0  0  0  0999 V2000
  -42.7080    1.4720   -9.8690 C   0  0  0  0  0  0  0  0  0  0  0  0
  -43.6180    0.3120   -9.7530 N   0  0  0  0  0  0  0  0  0  0  0  0
  -43.1090   -0.9680   -9.6960 C   0  0  0  0  0  0  0  0  0  0  0  0
  -41.7590   -1.2870   -9.9620 C   0  0  0  0  0  0  0  0  0  0  0  0
  -41.3000   -2.6010   -9.8350 C   0  0  0  0  0  0  0  0  0  0  0  0
  -42.1600   -3.6350   -9.4580 C   0  0  0  0  0  0  0  0  0  0  0  0
  -43.5160   -3.3890   -9.2290 C   0  0  0  0  0  0  0  0  0  0  0  0
  -44.2800   -4.3420   -8.9170 O   0  0  0  0  0  0  0  0  0  0  0  0
  -44.0200   -2.0900   -9.3580 C   0  0  0  0  0  0  0  0  0  0  0  0
  -45.3370   -1.8410   -9.2030 N   0  0  0  0  0  0  0  0  0  0  0  0
  -45.8440   -0.5970   -9.3720 C   0  0  0  0  0  0  0  0  0  0  0  0
  -47.2270   -0.4110   -9.2510 C   0  0  0  0  0  0  0  0  0  0  0  0
  -47.7900    0.8440   -9.4700 C   0  0  0  0  0  0  0  0  0  0  0  0
  -46.9800    1.9190   -9.8250 C   0  0  0  0  0  0  0  0  0  0  0  0
  -45.5970    1.7540   -9.9400 C   0  0  0  0  0  0  0  0  0  0  0  0
  -44.9900    0.4980   -9.6860 C   0  0  0  0  0  0  0  0  0  0  0  0
  1  2  1  0
  2  3  1  0
  2 16  1  0
  3  4  2  0
  3  9  1  0
  4  5  1  0
  5  6  2  0
  6  7  1  0
  7  8  2  0
  7  9  1  0
  9 10  2  0
 10 11  1  0
 11 12  2  0
 11 16  1  0
 12 13  1  0
 13 14  2  0
 14 15  1  0
 15 16  2  0
M  END
>  <Conformer_ID>  (88) 
88

$$$$
ligand_0
     RDKit          3D

 16 18  0  0  0  0  0  0  0  0999 V2000
  -55.0220   26.0730  -30.6220 C   0  0  0  0  0  0  0  0  0  0  0  0
  -55.5490   24.9920  -31.4820 N   0  0  0  0  0  0  0  0  0  0  0  0
  -55.8480   25.2410  -32.8060 C   0  0  0  0  0  0  0  0  0  0  0  0
  -55.8950   26.5350  -33.3680 C   0  0  0  0  0  0  0  0  0  0  0  0
  -56.1550   26.7100  -34.7310 C   0  0  0  0  0  0  0  0  0  0  0  0
  -56.3900   25.6160  -35.5690 C   0  0  0  0  0  0  0  0  0  0  0  0
  -56.4040   24.3150  -35.0600 C   0  0  0  0  0  0  0  0  0  0  0  0
  -56.6460   23.3460  -35.8280 O   0  0  0  0  0  0  0  0  0  0  0  0
  -56.1620   24.0980  -33.6990 C   0  0  0  0  0  0  0  0  0  0  0  0
  -56.2330   22.8560  -33.1740 N   0  0  0  0  0  0  0  0  0  0  0  0
  -56.0480   22.6380  -31.8510 C   0  0  0  0  0  0  0  0  0  0  0  0
  -56.1880   21.3360  -31.3560 C   0  0  0  0  0  0  0  0  0  0  0  0
  -56.0570   21.0820  -29.9930 C   0  0  0  0  0  0  0  0  0  0  0  0
  -55.7980   22.1290  -29.1110 C   0  0  0  0  0  0  0  0  0  0  0  0
  -55.6460   23.4330  -29.5880 C   0  0  0  0  0  0  0  0  0  0  0  0
  -55.7360   23.7170  -30.9750 C   0  0  0  0  0  0  0  0  0  0  0  0
  1  2  1  0
  2  3  1  0
  2 16  1  0
  3  4  2  0
  3  9  1  0
  4  5  1  0
  5  6  2  0
  6  7  1  0
  7  8  2  0
  7  9  1  0
  9 10  2  0
 10 11  1  0
 11 12  2  0
 11 16  1  0
 12 13  1  0
 13 14  2  0
 14 15  1  0
 15 16  2  0
M  END
>  <Conformer_ID>  (89) 
89

$$$$
ligand_0
     RDKit          3D

 16 18  0  0  0  0  0  0  0  0999 V2000
  -63.2500   11.9100   -3.0020 C   0  0  0  0  0  0  0  0  0  0  0  0
  -63.3630   10.9180   -4.0920 N   0  0  0  0  0  0  0  0  0  0  0  0
  -63.4340   11.3320   -5.4060 C   0  0  0  0  0  0  0  0  0  0  0  0
  -63.6280   12.6760   -5.7930 C   0  0  0  0  0  0  0  0  0  0  0  0
  -63.6370   13.0330   -7.1450 C   0  0  0  0  0  0  0  0  0  0  0  0
  -63.4720   12.0730   -8.1480 C   0  0  0  0  0  0  0  0  0  0  0  0
  -63.3250   10.7220   -7.8270 C   0  0  0  0  0  0  0  0  0  0  0  0
  -63.2050    9.8700   -8.7480 O   0  0  0  0  0  0  0  0  0  0  0  0
  -63.3220   10.3210   -6.4860 C   0  0  0  0  0  0  0  0  0  0  0  0
  -63.2450    9.0150   -6.1550 N   0  0  0  0  0  0  0  0  0  0  0  0
  -63.2900    8.6100   -4.8640 C   0  0  0  0  0  0  0  0  0  0  0  0
  -63.2600    7.2380   -4.5870 C   0  0  0  0  0  0  0  0  0  0  0  0
  -63.3570    6.7830   -3.2740 C   0  0  0  0  0  0  0  0  0  0  0  0
  -63.4990    7.6930   -2.2290 C   0  0  0  0  0  0  0  0  0  0  0  0
  -63.5210    9.0660   -2.4870 C   0  0  0  0  0  0  0  0  0  0  0  0
  -63.3860    9.5620   -3.8090 C   0  0  0  0  0  0  0  0  0  0  0  0
  1  2  1  0
  2  3  1  0
  2 16  1  0
  3  4  2  0
  3  9  1  0
  4  5  1  0
  5  6  2  0
  6  7  1  0
  7  8  2  0
  7  9  1  0
  9 10  2  0
 10 11  1  0
 11 12  2  0
 11 16  1  0
 12 13  1  0
 13 14  2  0
 14 15  1  0
 15 16  2  0
M  END
>  <Conformer_ID>  (90) 
90

$$$$
ligand_0
     RDKit          3D

 16 18  0  0  0  0  0  0  0  0999 V2000
  -44.6500   20.4480  -18.5110 C   0  0  0  0  0  0  0  0  0  0  0  0
  -45.8660   19.6910  -18.1450 N   0  0  0  0  0  0  0  0  0  0  0  0
  -45.8640   18.8630  -17.0420 C   0  0  0  0  0  0  0  0  0  0  0  0
  -44.6960   18.5030  -16.3350 C   0  0  0  0  0  0  0  0  0  0  0  0
  -44.7740   17.7010  -15.1920 C   0  0  0  0  0  0  0  0  0  0  0  0
  -46.0010   17.2200  -14.7290 C   0  0  0  0  0  0  0  0  0  0  0  0
  -47.1850   17.5020  -15.4140 C   0  0  0  0  0  0  0  0  0  0  0  0
  -48.2770   17.0340  -14.9940 O   0  0  0  0  0  0  0  0  0  0  0  0
  -47.1490   18.2910  -16.5690 C   0  0  0  0  0  0  0  0  0  0  0  0
  -48.2720   18.5230  -17.2820 N   0  0  0  0  0  0  0  0  0  0  0  0
  -48.2430   19.2450  -18.4270 C   0  0  0  0  0  0  0  0  0  0  0  0
  -49.4300   19.4070  -19.1520 C   0  0  0  0  0  0  0  0  0  0  0  0
  -49.4290   20.0980  -20.3610 C   0  0  0  0  0  0  0  0  0  0  0  0
  -48.2400   20.6220  -20.8630 C   0  0  0  0  0  0  0  0  0  0  0  0
  -47.0470   20.4780  -20.1480 C   0  0  0  0  0  0  0  0  0  0  0  0
  -47.0240   19.8130  -18.8960 C   0  0  0  0  0  0  0  0  0  0  0  0
  1  2  1  0
  2  3  1  0
  2 16  1  0
  3  4  2  0
  3  9  1  0
  4  5  1  0
  5  6  2  0
  6  7  1  0
  7  8  2  0
  7  9  1  0
  9 10  2  0
 10 11  1  0
 11 12  2  0
 11 16  1  0
 12 13  1  0
 13 14  2  0
 14 15  1  0
 15 16  2  0
M  END
>  <Conformer_ID>  (91) 
91

$$$$
ligand_0
     RDKit          3D

 16 18  0  0  0  0  0  0  0  0999 V2000
  -56.4100   17.1280  -55.0680 C   0  0  0  0  0  0  0  0  0  0  0  0
  -55.1700   17.1740  -54.2640 N   0  0  0  0  0  0  0  0  0  0  0  0
  -55.1860   17.7060  -52.9910 C   0  0  0  0  0  0  0  0  0  0  0  0
  -56.2770   18.4270  -52.4580 C   0  0  0  0  0  0  0  0  0  0  0  0
  -56.2460   18.8940  -51.1400 C   0  0  0  0  0  0  0  0  0  0  0  0
  -55.1340   18.6770  -50.3220 C   0  0  0  0  0  0  0  0  0  0  0  0
  -54.0060   18.0120  -50.8100 C   0  0  0  0  0  0  0  0  0  0  0  0
  -53.0030   17.8520  -50.0630 O   0  0  0  0  0  0  0  0  0  0  0  0
  -53.9920   17.5400  -52.1270 C   0  0  0  0  0  0  0  0  0  0  0  0
  -52.8890   16.9520  -52.6390 N   0  0  0  0  0  0  0  0  0  0  0  0
  -52.8460   16.5340  -53.9250 C   0  0  0  0  0  0  0  0  0  0  0  0
  -51.6570   15.9810  -54.4140 C   0  0  0  0  0  0  0  0  0  0  0  0
  -51.5580   15.5880  -55.7470 C   0  0  0  0  0  0  0  0  0  0  0  0
  -52.6420   15.7570  -56.6050 C   0  0  0  0  0  0  0  0  0  0  0  0
  -53.8400   16.2990  -56.1320 C   0  0  0  0  0  0  0  0  0  0  0  0
  -53.9830   16.6720  -54.7710 C   0  0  0  0  0  0  0  0  0  0  0  0
  1  2  1  0
  2  3  1  0
  2 16  1  0
  3  4  2  0
  3  9  1  0
  4  5  1  0
  5  6  2  0
  6  7  1  0
  7  8  2  0
  7  9  1  0
  9 10  2  0
 10 11  1  0
 11 12  2  0
 11 16  1  0
 12 13  1  0
 13 14  2  0
 14 15  1  0
 15 16  2  0
M  END
>  <Conformer_ID>  (92) 
92

$$$$
ligand_0
     RDKit          3D

 16 18  0  0  0  0  0  0  0  0999 V2000
  -24.0750    8.5000  -19.9270 C   0  0  0  0  0  0  0  0  0  0  0  0
  -24.3380    9.5230  -18.8920 N   0  0  0  0  0  0  0  0  0  0  0  0
  -24.5910   10.8290  -19.2540 C   0  0  0  0  0  0  0  0  0  0  0  0
  -24.4030   11.3290  -20.5610 C   0  0  0  0  0  0  0  0  0  0  0  0
  -24.7300   12.6530  -20.8710 C   0  0  0  0  0  0  0  0  0  0  0  0
  -25.2330   13.5200  -19.8970 C   0  0  0  0  0  0  0  0  0  0  0  0
  -25.3940   13.0960  -18.5760 C   0  0  0  0  0  0  0  0  0  0  0  0
  -25.8240   13.9030  -17.7080 O   0  0  0  0  0  0  0  0  0  0  0  0
  -25.0670   11.7830  -18.2220 C   0  0  0  0  0  0  0  0  0  0  0  0
  -25.1550   11.3700  -16.9390 N   0  0  0  0  0  0  0  0  0  0  0  0
  -24.7970   10.1160  -16.5760 C   0  0  0  0  0  0  0  0  0  0  0  0
  -24.8580    9.7640  -15.2230 C   0  0  0  0  0  0  0  0  0  0  0  0
  -24.4480    8.5000  -14.8040 C   0  0  0  0  0  0  0  0  0  0  0  0
  -23.9590    7.5840  -15.7320 C   0  0  0  0  0  0  0  0  0  0  0  0
  -23.9000    7.9150  -17.0880 C   0  0  0  0  0  0  0  0  0  0  0  0
  -24.3470    9.1800  -17.5490 C   0  0  0  0  0  0  0  0  0  0  0  0
  1  2  1  0
  2  3  1  0
  2 16  1  0
  3  4  2  0
  3  9  1  0
  4  5  1  0
  5  6  2  0
  6  7  1  0
  7  8  2  0
  7  9  1  0
  9 10  2  0
 10 11  1  0
 11 12  2  0
 11 16  1  0
 12 13  1  0
 13 14  2  0
 14 15  1  0
 15 16  2  0
M  END
>  <Conformer_ID>  (93) 
93

$$$$
ligand_0
     RDKit          3D

 16 18  0  0  0  0  0  0  0  0999 V2000
  -48.2270   21.9170  -23.2290 C   0  0  0  0  0  0  0  0  0  0  0  0
  -47.7460   21.1480  -22.0620 N   0  0  0  0  0  0  0  0  0  0  0  0
  -46.3960   20.9250  -21.8850 C   0  0  0  0  0  0  0  0  0  0  0  0
  -45.4220   21.1970  -22.8710 C   0  0  0  0  0  0  0  0  0  0  0  0
  -44.0640   20.9960  -22.6040 C   0  0  0  0  0  0  0  0  0  0  0  0
  -43.6350   20.5060  -21.3680 C   0  0  0  0  0  0  0  0  0  0  0  0
  -44.5550   20.1740  -20.3710 C   0  0  0  0  0  0  0  0  0  0  0  0
  -44.1470   19.7070  -19.2740 O   0  0  0  0  0  0  0  0  0  0  0  0
  -45.9240   20.3480  -20.6020 C   0  0  0  0  0  0  0  0  0  0  0  0
  -46.8340   19.9740  -19.6780 N   0  0  0  0  0  0  0  0  0  0  0  0
  -48.1630   20.0940  -19.9080 C   0  0  0  0  0  0  0  0  0  0  0  0
  -49.0590   19.6390  -18.9330 C   0  0  0  0  0  0  0  0  0  0  0  0
  -50.4330   19.6970  -19.1570 C   0  0  0  0  0  0  0  0  0  0  0  0
  -50.9220   20.1970  -20.3610 C   0  0  0  0  0  0  0  0  0  0  0  0
  -50.0420   20.6650  -21.3410 C   0  0  0  0  0  0  0  0  0  0  0  0
  -48.6400   20.6540  -21.1270 C   0  0  0  0  0  0  0  0  0  0  0  0
  1  2  1  0
  2  3  1  0
  2 16  1  0
  3  4  2  0
  3  9  1  0
  4  5  1  0
  5  6  2  0
  6  7  1  0
  7  8  2  0
  7  9  1  0
  9 10  2  0
 10 11  1  0
 11 12  2  0
 11 16  1  0
 12 13  1  0
 13 14  2  0
 14 15  1  0
 15 16  2  0
M  END
>  <Conformer_ID>  (94) 
94

$$$$
ligand_0
     RDKit          3D

 16 18  0  0  0  0  0  0  0  0999 V2000
  -49.0580   -2.4100  -43.9260 C   0  0  0  0  0  0  0  0  0  0  0  0
  -50.0190   -1.8060  -44.8730 N   0  0  0  0  0  0  0  0  0  0  0  0
  -51.3230   -1.5730  -44.4870 C   0  0  0  0  0  0  0  0  0  0  0  0
  -51.8880   -2.0770  -43.2940 C   0  0  0  0  0  0  0  0  0  0  0  0
  -53.2020   -1.7580  -42.9400 C   0  0  0  0  0  0  0  0  0  0  0  0
  -53.9960   -0.9500  -43.7580 C   0  0  0  0  0  0  0  0  0  0  0  0
  -53.5080   -0.4630  -44.9720 C   0  0  0  0  0  0  0  0  0  0  0  0
  -54.2520    0.2410  -45.7080 O   0  0  0  0  0  0  0  0  0  0  0  0
  -52.2020   -0.7690  -45.3710 C   0  0  0  0  0  0  0  0  0  0  0  0
  -51.7320   -0.3630  -46.5690 N   0  0  0  0  0  0  0  0  0  0  0  0
  -50.4870   -0.6920  -46.9870 C   0  0  0  0  0  0  0  0  0  0  0  0
  -50.0750   -0.2870  -48.2620 C   0  0  0  0  0  0  0  0  0  0  0  0
  -48.8210   -0.6520  -48.7460 C   0  0  0  0  0  0  0  0  0  0  0  0
  -47.9750   -1.4370  -47.9670 C   0  0  0  0  0  0  0  0  0  0  0  0
  -48.3660   -1.8430  -46.6880 C   0  0  0  0  0  0  0  0  0  0  0  0
  -49.6200   -1.4540  -46.1520 C   0  0  0  0  0  0  0  0  0  0  0  0
  1  2  1  0
  2  3  1  0
  2 16  1  0
  3  4  2  0
  3  9  1  0
  4  5  1  0
  5  6  2  0
  6  7  1  0
  7  8  2  0
  7  9  1  0
  9 10  2  0
 10 11  1  0
 11 12  2  0
 11 16  1  0
 12 13  1  0
 13 14  2  0
 14 15  1  0
 15 16  2  0
M  END
>  <Conformer_ID>  (95) 
95

$$$$
ligand_0
     RDKit          3D

 16 18  0  0  0  0  0  0  0  0999 V2000
  -43.8910   -5.3360  -39.9470 C   0  0  0  0  0  0  0  0  0  0  0  0
  -43.6680   -3.8740  -39.9170 N   0  0  0  0  0  0  0  0  0  0  0  0
  -42.4080   -3.3680  -39.6730 C   0  0  0  0  0  0  0  0  0  0  0  0
  -41.3230   -4.1520  -39.2230 C   0  0  0  0  0  0  0  0  0  0  0  0
  -40.0590   -3.5820  -39.0460 C   0  0  0  0  0  0  0  0  0  0  0  0
  -39.8370   -2.2240  -39.2900 C   0  0  0  0  0  0  0  0  0  0  0  0
  -40.8830   -1.3890  -39.6900 C   0  0  0  0  0  0  0  0  0  0  0  0
  -40.6660   -0.1610  -39.8780 O   0  0  0  0  0  0  0  0  0  0  0  0
  -42.1660   -1.9170  -39.8670 C   0  0  0  0  0  0  0  0  0  0  0  0
  -43.2050   -1.1170  -40.1910 N   0  0  0  0  0  0  0  0  0  0  0  0
  -44.4600   -1.6080  -40.3180 C   0  0  0  0  0  0  0  0  0  0  0  0
  -45.5040   -0.7200  -40.6030 C   0  0  0  0  0  0  0  0  0  0  0  0
  -46.8160   -1.1800  -40.6890 C   0  0  0  0  0  0  0  0  0  0  0  0
  -47.0970   -2.5280  -40.4790 C   0  0  0  0  0  0  0  0  0  0  0  0
  -46.0650   -3.4300  -40.2040 C   0  0  0  0  0  0  0  0  0  0  0  0
  -44.7160   -2.9980  -40.1480 C   0  0  0  0  0  0  0  0  0  0  0  0
  1  2  1  0
  2  3  1  0
  2 16  1  0
  3  4  2  0
  3  9  1  0
  4  5  1  0
  5  6  2  0
  6  7  1  0
  7  8  2  0
  7  9  1  0
  9 10  2  0
 10 11  1  0
 11 12  2  0
 11 16  1  0
 12 13  1  0
 13 14  2  0
 14 15  1  0
 15 16  2  0
M  END
>  <Conformer_ID>  (96) 
96

$$$$
ligand_0
     RDKit          3D

 16 18  0  0  0  0  0  0  0  0999 V2000
  -45.9340   -9.5080  -17.0920 C   0  0  0  0  0  0  0  0  0  0  0  0
  -45.6570   -8.0550  -17.0950 N   0  0  0  0  0  0  0  0  0  0  0  0
  -46.6940   -7.1500  -17.0040 C   0  0  0  0  0  0  0  0  0  0  0  0
  -48.0550   -7.5040  -17.1270 C   0  0  0  0  0  0  0  0  0  0  0  0
  -49.0580   -6.5420  -16.9720 C   0  0  0  0  0  0  0  0  0  0  0  0
  -48.7430   -5.2060  -16.7080 C   0  0  0  0  0  0  0  0  0  0  0  0
  -47.4130   -4.7870  -16.6240 C   0  0  0  0  0  0  0  0  0  0  0  0
  -47.1530   -3.5720  -16.4130 O   0  0  0  0  0  0  0  0  0  0  0  0
  -46.3800   -5.7160  -16.7850 C   0  0  0  0  0  0  0  0  0  0  0  0
  -45.0890   -5.3230  -16.7710 N   0  0  0  0  0  0  0  0  0  0  0  0
  -44.0810   -6.2040  -16.9740 C   0  0  0  0  0  0  0  0  0  0  0  0
  -42.7650   -5.7280  -17.0010 C   0  0  0  0  0  0  0  0  0  0  0  0
  -41.7060   -6.5960  -17.2590 C   0  0  0  0  0  0  0  0  0  0  0  0
  -41.9550   -7.9440  -17.5060 C   0  0  0  0  0  0  0  0  0  0  0  0
  -43.2620   -8.4380  -17.4730 C   0  0  0  0  0  0  0  0  0  0  0  0
  -44.3560   -7.5870  -17.1740 C   0  0  0  0  0  0  0  0  0  0  0  0
  1  2  1  0
  2  3  1  0
  2 16  1  0
  3  4  2  0
  3  9  1  0
  4  5  1  0
  5  6  2  0
  6  7  1  0
  7  8  2  0
  7  9  1  0
  9 10  2  0
 10 11  1  0
 11 12  2  0
 11 16  1  0
 12 13  1  0
 13 14  2  0
 14 15  1  0
 15 16  2  0
M  END
>  <Conformer_ID>  (97) 
97

$$$$
ligand_0
     RDKit          3D

 16 18  0  0  0  0  0  0  0  0999 V2000
  -73.2400   10.7990  -54.7740 C   0  0  0  0  0  0  0  0  0  0  0  0
  -72.1220   11.4670  -54.0730 N   0  0  0  0  0  0  0  0  0  0  0  0
  -71.5280   10.8670  -52.9820 C   0  0  0  0  0  0  0  0  0  0  0  0
  -72.0560    9.7320  -52.3290 C   0  0  0  0  0  0  0  0  0  0  0  0
  -71.3720    9.1450  -51.2600 C   0  0  0  0  0  0  0  0  0  0  0  0
  -70.1630    9.6700  -50.7980 C   0  0  0  0  0  0  0  0  0  0  0  0
  -69.6170   10.8200  -51.3730 C   0  0  0  0  0  0  0  0  0  0  0  0
  -68.5390   11.2930  -50.9220 O   0  0  0  0  0  0  0  0  0  0  0  0
  -70.2750   11.4460  -52.4370 C   0  0  0  0  0  0  0  0  0  0  0  0
  -69.7990   12.5940  -52.9660 N   0  0  0  0  0  0  0  0  0  0  0  0
  -70.4520   13.2350  -53.9630 C   0  0  0  0  0  0  0  0  0  0  0  0
  -69.9380   14.4490  -54.4340 C   0  0  0  0  0  0  0  0  0  0  0  0
  -70.6110   15.1630  -55.4230 C   0  0  0  0  0  0  0  0  0  0  0  0
  -71.8090   14.6770  -55.9390 C   0  0  0  0  0  0  0  0  0  0  0  0
  -72.3320   13.4620  -55.4880 C   0  0  0  0  0  0  0  0  0  0  0  0
  -71.6500   12.6940  -54.5110 C   0  0  0  0  0  0  0  0  0  0  0  0
  1  2  1  0
  2  3  1  0
  2 16  1  0
  3  4  2  0
  3  9  1  0
  4  5  1  0
  5  6  2  0
  6  7  1  0
  7  8  2  0
  7  9  1  0
  9 10  2  0
 10 11  1  0
 11 12  2  0
 11 16  1  0
 12 13  1  0
 13 14  2  0
 14 15  1  0
 15 16  2  0
M  END
>  <Conformer_ID>  (98) 
98

$$$$
ligand_0
     RDKit          3D

 16 18  0  0  0  0  0  0  0  0999 V2000
  -78.6400   10.7870  -17.6030 C   0  0  0  0  0  0  0  0  0  0  0  0
  -77.3540   11.2920  -18.1280 N   0  0  0  0  0  0  0  0  0  0  0  0
  -77.3000   11.9090  -19.3600 C   0  0  0  0  0  0  0  0  0  0  0  0
  -78.3680   11.9070  -20.2840 C   0  0  0  0  0  0  0  0  0  0  0  0
  -78.2620   12.5970  -21.4950 C   0  0  0  0  0  0  0  0  0  0  0  0
  -77.0980   13.2930  -21.8320 C   0  0  0  0  0  0  0  0  0  0  0  0
  -75.9920   13.2900  -20.9800 C   0  0  0  0  0  0  0  0  0  0  0  0
  -74.9420   13.9010  -21.3170 O   0  0  0  0  0  0  0  0  0  0  0  0
  -76.0510   12.6010  -19.7640 C   0  0  0  0  0  0  0  0  0  0  0  0
  -74.9730   12.5330  -18.9550 N   0  0  0  0  0  0  0  0  0  0  0  0
  -75.0020   11.8290  -17.7980 C   0  0  0  0  0  0  0  0  0  0  0  0
  -73.8360   11.7510  -17.0280 C   0  0  0  0  0  0  0  0  0  0  0  0
  -73.8140   10.9930  -15.8590 C   0  0  0  0  0  0  0  0  0  0  0  0
  -74.9520   10.2970  -15.4590 C   0  0  0  0  0  0  0  0  0  0  0  0
  -76.1270   10.3720  -16.2100 C   0  0  0  0  0  0  0  0  0  0  0  0
  -76.1920   11.1660  -17.3840 C   0  0  0  0  0  0  0  0  0  0  0  0
  1  2  1  0
  2  3  1  0
  2 16  1  0
  3  4  2  0
  3  9  1  0
  4  5  1  0
  5  6  2  0
  6  7  1  0
  7  8  2  0
  7  9  1  0
  9 10  2  0
 10 11  1  0
 11 12  2  0
 11 16  1  0
 12 13  1  0
 13 14  2  0
 14 15  1  0
 15 16  2  0
M  END
>  <Conformer_ID>  (99) 
99

$$$$
ligand_0
     RDKit          3D

 16 18  0  0  0  0  0  0  0  0999 V2000
  -31.0420   11.9250  -29.1640 C   0  0  0  0  0  0  0  0  0  0  0  0
  -32.4210   12.1590  -28.6850 N   0  0  0  0  0  0  0  0  0  0  0  0
  -32.7050   13.2480  -27.8880 C   0  0  0  0  0  0  0  0  0  0  0  0
  -31.7160   14.0660  -27.2980 C   0  0  0  0  0  0  0  0  0  0  0  0
  -32.0770   15.1860  -26.5430 C   0  0  0  0  0  0  0  0  0  0  0  0
  -33.4180   15.5180  -26.3380 C   0  0  0  0  0  0  0  0  0  0  0  0
  -34.4410   14.7200  -26.8560 C   0  0  0  0  0  0  0  0  0  0  0  0
  -35.6440   15.0230  -26.6340 O   0  0  0  0  0  0  0  0  0  0  0  0
  -34.1230   13.5830  -27.6070 C   0  0  0  0  0  0  0  0  0  0  0  0
  -35.0930   12.7620  -28.0630 N   0  0  0  0  0  0  0  0  0  0  0  0
  -34.7970   11.6340  -28.7490 C   0  0  0  0  0  0  0  0  0  0  0  0
  -35.8440   10.7950  -29.1500 C   0  0  0  0  0  0  0  0  0  0  0  0
  -35.5750    9.5990  -29.8120 C   0  0  0  0  0  0  0  0  0  0  0  0
  -34.2580    9.2260  -30.0670 C   0  0  0  0  0  0  0  0  0  0  0  0
  -33.2010   10.0550  -29.6830 C   0  0  0  0  0  0  0  0  0  0  0  0
  -33.4450   11.2960  -29.0420 C   0  0  0  0  0  0  0  0  0  0  0  0
  1  2  1  0
  2  3  1  0
  2 16  1  0
  3  4  2  0
  3  9  1  0
  4  5  1  0
  5  6  2  0
  6  7  1  0
  7  8  2  0
  7  9  1  0
  9 10  2  0
 10 11  1  0
 11 12  2  0
 11 16  1  0
 12 13  1  0
 13 14  2  0
 14 15  1  0
 15 16  2  0
M  END
>  <Conformer_ID>  (100) 
100

$$$$
