
     RDKit          3D

 26 28  0  0  0  0  0  0  0  0999 V2000
    0.2279    2.4350    0.2766 C   0  0  0  0  0  0  0  0  0  0  0  0
    0.0859    0.9709    0.1274 N   0  0  0  0  0  0  0  0  0  0  0  0
   -1.1596    0.4090   -0.0631 C   0  0  0  0  0  0  0  0  0  0  0  0
   -2.3705    1.1190    0.0909 C   0  0  0  0  0  0  0  0  0  0  0  0
   -3.5968    0.4994   -0.1692 C   0  0  0  0  0  0  0  0  0  0  0  0
   -3.6607   -0.8374   -0.5709 C   0  0  0  0  0  0  0  0  0  0  0  0
   -2.4994   -1.6039   -0.6933 C   0  0  0  0  0  0  0  0  0  0  0  0
   -2.5830   -2.8159   -1.0299 O   0  0  0  0  0  0  0  0  0  0  0  0
   -1.2530   -1.0256   -0.4301 C   0  0  0  0  0  0  0  0  0  0  0  0
   -0.1238   -1.7639   -0.4802 N   0  0  0  0  0  0  0  0  0  0  0  0
    1.0830   -1.2284   -0.1815 C   0  0  0  0  0  0  0  0  0  0  0  0
    2.2107   -2.0574   -0.1988 C   0  0  0  0  0  0  0  0  0  0  0  0
    3.4610   -1.5539    0.1539 C   0  0  0  0  0  0  0  0  0  0  0  0
    3.5917   -0.2221    0.5403 C   0  0  0  0  0  0  0  0  0  0  0  0
    2.4782    0.6220    0.5541 C   0  0  0  0  0  0  0  0  0  0  0  0
    1.2000    0.1482    0.1630 C   0  0  0  0  0  0  0  0  0  0  0  0
   -0.5471    2.9845   -0.2946 H   0  0  0  0  0  0  0  0  0  0  0  0
    1.1709    2.8005   -0.1783 H   0  0  0  0  0  0  0  0  0  0  0  0
    0.1837    2.7147    1.3501 H   0  0  0  0  0  0  0  0  0  0  0  0
   -2.3966    2.1417    0.4372 H   0  0  0  0  0  0  0  0  0  0  0  0
   -4.5136    1.0632   -0.0526 H   0  0  0  0  0  0  0  0  0  0  0  0
   -4.6271   -1.2853   -0.7683 H   0  0  0  0  0  0  0  0  0  0  0  0
    2.1161   -3.1010   -0.4738 H   0  0  0  0  0  0  0  0  0  0  0  0
    4.3276   -2.2024    0.1455 H   0  0  0  0  0  0  0  0  0  0  0  0
    4.5603    0.1579    0.8392 H   0  0  0  0  0  0  0  0  0  0  0  0
    2.6342    1.6310    0.9062 H   0  0  0  0  0  0  0  0  0  0  0  0
  1  2  1  0
  2  3  1  0
  3  4  2  0
  4  5  1  0
  5  6  2  0
  6  7  1  0
  7  8  2  0
  7  9  1  0
  9 10  2  0
 10 11  1  0
 11 12  2  0
 12 13  1  0
 13 14  2  0
 14 15  1  0
 15 16  2  0
 16  2  1  0
  9  3  1  0
 16 11  1  0
  1 17  1  0
  1 18  1  0
  1 19  1  0
  4 20  1  0
  5 21  1  0
  6 22  1  0
 12 23  1  0
 13 24  1  0
 14 25  1  0
 15 26  1  0
M  END
$$$$
