ligand_0
     RDKit          3D

 26 28  0  0  0  0  0  0  0  0999 V2000
   -0.1106   -2.3442   -0.7419 C   0  0  0  0  0  0  0  0  0  0  0  0
   -0.0423   -0.9415   -0.2794 N   0  0  0  0  0  0  0  0  0  0  0  0
    1.1762   -0.3639    0.0115 C   0  0  0  0  0  0  0  0  0  0  0  0
    2.3829   -1.0904    0.1116 C   0  0  0  0  0  0  0  0  0  0  0  0
    3.5916   -0.4321    0.3585 C   0  0  0  0  0  0  0  0  0  0  0  0
    3.6384    0.9540    0.5289 C   0  0  0  0  0  0  0  0  0  0  0  0
    2.4707    1.7195    0.4890 C   0  0  0  0  0  0  0  0  0  0  0  0
    2.5332    2.9650    0.6733 O   0  0  0  0  0  0  0  0  0  0  0  0
    1.2389    1.0981    0.2569 C   0  0  0  0  0  0  0  0  0  0  0  0
    0.0912    1.8088    0.2774 N   0  0  0  0  0  0  0  0  0  0  0  0
   -1.1111    1.2123    0.1017 C   0  0  0  0  0  0  0  0  0  0  0  0
   -2.2695    1.9935    0.1872 C   0  0  0  0  0  0  0  0  0  0  0  0
   -3.5266    1.4056    0.0642 C   0  0  0  0  0  0  0  0  0  0  0  0
   -3.6364    0.0309   -0.1312 C   0  0  0  0  0  0  0  0  0  0  0  0
   -2.4903   -0.7625   -0.2286 C   0  0  0  0  0  0  0  0  0  0  0  0
   -1.1967   -0.1872   -0.1461 C   0  0  0  0  0  0  0  0  0  0  0  0
   -0.9268   -2.4902   -1.4783 H   0  0  0  0  0  0  0  0  0  0  0  0
   -0.2464   -3.0249    0.1246 H   0  0  0  0  0  0  0  0  0  0  0  0
    0.7916   -2.6325   -1.3178 H   0  0  0  0  0  0  0  0  0  0  0  0
    2.4134   -2.1670    0.0311 H   0  0  0  0  0  0  0  0  0  0  0  0
    4.5070   -1.0063    0.4241 H   0  0  0  0  0  0  0  0  0  0  0  0
    4.5922    1.4327    0.7146 H   0  0  0  0  0  0  0  0  0  0  0  0
   -2.1962    3.0598    0.3638 H   0  0  0  0  0  0  0  0  0  0  0  0
   -4.4184    2.0145    0.1387 H   0  0  0  0  0  0  0  0  0  0  0  0
   -4.6157   -0.4254   -0.1996 H   0  0  0  0  0  0  0  0  0  0  0  0
   -2.6403   -1.8268   -0.3342 H   0  0  0  0  0  0  0  0  0  0  0  0
  1  2  1  0
  2  3  1  0
  3  4  2  0
  4  5  1  0
  5  6  2  0
  6  7  1  0
  7  8  2  0
  7  9  1  0
  9 10  2  0
 10 11  1  0
 11 12  2  0
 12 13  1  0
 13 14  2  0
 14 15  1  0
 15 16  2  0
 16  2  1  0
  9  3  1  0
 16 11  1  0
  1 17  1  0
  1 18  1  0
  1 19  1  0
  4 20  1  0
  5 21  1  0
  6 22  1  0
 12 23  1  0
 13 24  1  0
 14 25  1  0
 15 26  1  0
M  END
$$$$
